# svn $Id: Module.mk 975 2009-05-05 22:51:13Z kate $
#::::::::::::::::::::::::::::::::::::::::::::::::::::: Hernan G. Arango :::
# Copyright (c) 2002-2009 The ROMS/TOMS Group             Kate Hedstrom :::
#   Licensed under a MIT/X style license                                :::
#   See License_ROMS.txt                                                :::
#::::::::::::::::::::::::::::::::::::::::::::::::::::::::::::::::::::::::::

local_sub  := Waves/SWAN/Src

local_lib  := libSWAN.a
local_src  := $(wildcard $(local_sub)/*.F)

$(eval $(call make-library,$(local_lib),$(local_src)))

$(eval $(compile-rules))

# swch = -unix -f95 -mpi
# @perl SWAN/switch.pl $(swch) SWAN/*.ftn


