# svn $Id: Linux-g95.mk 15 2007-02-21 03:27:01Z arango $
#::::::::::::::::::::::::::::::::::::::::::::::::::::::::::::::::::::::::::
# Copyright (c) 2002-2007 The ROMS/TOMS Group                           :::
#   Licensed under a MIT/X style license                                :::
#   See License_ROMS.txt                                                :::
#::::::::::::::::::::::::::::::::::::::::::::::::::::::::::::::::::::::::::
#
# Include file for Sun F95 compiler on Linux
# -----------------------------------------------------------------
#
# ARPACK_LIBDIR  ARPACK libary directory
# FC             Name of the fortran compiler to use
# FFLAGS         Flags to the fortran compiler
# CPP            Name of the C-preprocessor
# CPPFLAGS       Flags to the C-preprocessor
# CC             Name of the C compiler
# CFLAGS         Flags to the C compiler
# CXX            Name of the C++ compiler
# CXXFLAGS       Flags to the C++ compiler
# CLEAN          Name of cleaning executable after C-preprocessing
# NETCDF_INCDIR  NetCDF include directory
# NETCDF_LIBDIR  NetCDF libary directory
# LD             Program to load the objects into an executable
# LDFLAGS        Flags to the loader
# RANLIB         Name of ranlib command
# MDEPFLAGS      Flags for sfmakedepend  (-s if you keep .f files)
#
# First the defaults
#
               FC := f95
           FFLAGS := -native -u
              CPP := /usr/bin/cpp
         CPPFLAGS := -P -traditional
               CC := gcc
              CXX := g++
           CFLAGS :=
         CXXFLAGS :=
          LDFLAGS :=
               AR := ar
          ARFLAGS := r
            MKDIR := mkdir -p
               RM := rm -f
           RANLIB := ranlib
             PERL := perl
             TEST := test

        MDEPFLAGS := --cpp --fext=f90 --file=- --objdir=$(SCRATCH_DIR)

#
# Library locations, can be overridden by environment variables.
#

ifdef USE_NETCDF4
        NC_CONFIG ?= nc-config
    NETCDF_INCDIR ?= $(shell $(NC_CONFIG) --prefix)/include
             LIBS := $(shell $(NC_CONFIG) --flibs)
else
    NETCDF_INCDIR ?= /usr/local/include
    NETCDF_LIBDIR ?= /usr/local/lib
             LIBS := -L$(NETCDF_LIBDIR) -lnetcdf
endif

ifdef USE_ARPACK
 ifdef USE_MPI
   PARPACK_LIBDIR ?= /usr/local/lib
             LIBS += -L$(PARPACK_LIBDIR) -lparpack
 endif
    ARPACK_LIBDIR ?= /usr/local/lib
             LIBS += -L$(ARPACK_LIBDIR) -larpack
endif

ifdef USE_MPI
         CPPFLAGS += -DMPI
               FC := mpif90
endif

ifdef USE_OpenMP
         CPPFLAGS += -D_OPENMP
           FFLAGS += -openmp
endif

ifdef USE_DEBUG
           FFLAGS += -g -C
           CFLAGS += -g
         CXXFLAGS += -g
else
           FFLAGS += -O3
           CFLAGS += -O3
         CXXFLAGS += -O3
endif

ifdef USE_CXX
             LIBS += -lstdc++
endif

ifdef SWAN_COUPLE
           FFLAGS += -ffixed-form -I/usr/local/mct/include
             LIBS += -L$(MCT_LIBDIR) -lmct -lmpeu
endif
# Use full path of compiler.
#
               FC := $(shell which ${FC})
               LD := $(FC)
