!  Station Extraction Parameters.
!
!==============================================================================
!  Copyright (c) 2002-2016 The ROMS/TOMS Group                              ===
!========================================================= Hernan G. Arango ===
!                                                                             !
! Input parameters can be entered in ANY order, provided that the parameter   !
! KEYWORD (usually, upper case) is typed correctly followed by "="  or "=="   !
! symbols. Any comment lines are allowed and must begin with an exclamation   !
! mark (!) in column one.  Comments may  appear to the right of a parameter   !
! specification to improve documentation.  All comments will ignored during   !
! reading.  Blank lines are also allowed and ignored. Continuation lines in   !
! a parameter specification are allowed and must be preceded by a backslash   !
! (\).  In some instances, more than one value is required for a parameter.   !
! If fewer values are provided, the  last value  is assigned for the entire   !
! parameter array.  The multiplication symbol (*),  without blank spaces in   !
! between, is allowed for a parameter specification.  For example, in a two   !
! grids nested application:                                                   !
!                                                                             !
!    AKT_BAK == 2*1.0d-6  2*5.0d-6              ! m2/s                        !
!                                                                             !
! indicates that the first two entries of array AKT_BAK,  in fortran column-  !
! major order, will have the same value of "1.0d-6" for grid 1,  whereas the  !
! next two entries will have the same value of "5.0d-6" for grid 2.           !
!                                                                             !
! In multiple levels of nesting and/or multiple connected domains  step-ups,  !
! "Ngrids" entries are expected for some of these parameters.  In such case,  !
! the order of the entries for a parameter is extremely important.  It  must  !
! follow the same order (1:Ngrids) as in the state variable declaration. The  !
! USER may follow the above guidelines for specifying his/her values.  These  !
! parameters are marked by "==" plural symbol after the KEYWORD.              !
!                                                                             !
!==============================================================================
!
! Switch to control the writing of stations data within nested and/or multiple
! connected grids, [1:Ngrids].

   Lstations == T

! Logical switches (TRUE/FALSE) to activate writing of fields in STATION
! output file, [Sout(:,ng), ng=1, Ngrids].

Sout(idFsur) == T                          ! free-surface
Sout(idUbar) == T                          ! 2D U-velocity
Sout(idVbar) == T                          ! 2D V-velocity
Sout(idUvel) == T                          ! 3D U-velocity
Sout(idVvel) == T                          ! 3D V-velocity
Sout(idWvel) == T                          ! 3D W-velocity
Sout(idOvel) == T                          ! 3D omega vertical velocity

Sout(idTvar) == T T T T T T T T T T T T T T T T     ! all (NT) tracers

Sout(idUsms) == T                          ! surface U-stress
Sout(idVsms) == T                          ! surface V-stress
Sout(idUbms) == T                          ! bottom U-stress
Sout(idVbms) == T                          ! bottom V-stress
Sout(idUbws) == F                          ! bottom U-wave stress
Sout(idVbws) == F                          ! bottom V-wave stress

Sout(idUbed) == F                          ! bed wave orbital U-velocity
Sout(idVbed) == F                          ! bed wave orbital V-velocity
Sout(idUbot) == F                          ! bottom U-momentum above bed
Sout(idVbot) == F                          ! bottom V-momentum above bed

Sout(idTsur) == T T                        ! surface net heat and salt flux
Sout(idLhea) == T                          ! latent heat flux
Sout(idShea) == T                          ! sensible heat flux
Sout(idLrad) == T                          ! longwave radiation flux
Sout(idSrad) == T                          ! shortwave radiation flux
Sout(idEmPf) == F                          ! E-P flux
Sout(idevap) == F                          ! evaporation rate
Sout(idrain) == F                          ! precipitation rate

Sout(idDano) == T                          ! density anomaly
Sout(idVvis) == T                          ! vertical viscosity
Sout(idTdif) == T                          ! vertical T-diffusion
Sout(idSdif) == T                          ! vertical Salinity diffusion
Sout(idHsbl) == F                          ! depth of surface boundary layer
Sout(idHbbl) == F                          ! depth of bottom boundary layer
Sout(idMtke) == T                          ! turbulent kinetic energy
Sout(idMtls) == T                          ! turbulent length scale

! Logical switches (TRUE/FALSE) to activate writing of ice prognostic
! variables into HISTORY output file.
Sout(idUice) == T
Sout(idVice) == T
Sout(idAice) == T
Sout(idHice) == T
Sout(idTice) == T
Sout(idHsno) == T
Sout(idTimid) == T
Sout(idApond) == T
Sout(idHpond) == T
Sout(idTauiw) == T
Sout(idChuiw) == T
Sout(idAgeice) == T
Sout(idSig11) == T
Sout(idSig12) == T
Sout(idSig22) == T
Sout(idS0mk) == T
Sout(idT0mk) == T
Sout(idWfr) == T
Sout(idWai) == T
Sout(idWao) == T
Sout(idWio) == T
Sout(idWro) == T
Sout(idIomflx) == T

! Logical switches (TRUE/FALSE) to activate writing of exposed sediment
! layer properties into STATIONS output file.  Currently, MBOTP properties
! are expected for the bottom boundary layer and/or sediment models:
!
!   Sout(idBott(isd50)),  isd50 = 1        ! mean grain diameter
!   Sout(idBott(idens)),  idens = 2        ! mean grain density
!   Sout(idBott(iwsed)),  iwsed = 3        ! mean settling velocity
!   Sout(idBott(itauc)),  itauc = 4        ! critical erosion stress
!   Sout(idBott(irlen)),  irlen = 5        ! ripple length
!   Sout(idBott(irhgt)),  irhgt = 6        ! ripple height
!   Sout(idBott(ibwav)),  ibwav = 7        ! wave excursion amplitude
!   Sout(idBott(izdef)),  izdef = 8        ! default bottom roughness
!   Sout(idBott(izapp)),  izapp = 9        ! apparent bottom roughness
!   Sout(idBott(izNik)),  izNik = 10       ! Nikuradse bottom roughness
!   Sout(idBott(izbio)),  izbio = 11       ! biological bottom roughness
!   Sout(idBott(izbfm)),  izbfm = 12       ! bed form bottom roughness
!   Sout(idBott(izbld)),  izbld = 13       ! bed load bottom roughness
!   Sout(idBott(izwbl)),  izwbl = 14       ! wave bottom roughness
!   Sout(idBott(iactv)),  iactv = 15       ! active layer thickness
!   Sout(idBott(ishgt)),  ishgt = 16       ! saltation height
!
!                                 1 1 1 1 1 1 1
!               1 2 3 4 5 6 7 8 9 0 1 2 3 4 5 6

Sout(idBott) == F F F F F F F F F F F F F F F F

! Number of stations to process in each nested grid.  These values are
! essential because the station arrays are dynamically allocated using
! these values, [1:Ngrids].

    NSTATION ==  150

! Station locations for all grids in any desired order.  The horizontal
! location for a particular station may be specified in terms of fractional
! (I,J) grid pairs (FLAG=0) or (longitude,latitude) grid pairs (FLAG=1).
! Here, FLAG is a special switch and may be used for multiple purposes.
! The GRID column indicates nested grid number to process. This value must
! be one in non-nested applications.  The COMMENT section is ignored during
! reading and may be used to help documentation.

POS =  GRID  FLAG      X-POS       Y-POS     COMMENT

        1     0         144          94      ! east coast
        1     0         126         110      ! west coast
        1     0         128          62      ! east coast
        1     0         108          81      ! west coast
        1     0         138         100
        1     0         128          94
        1     0         118          88      ! Deep pool
        1     0         112          77
        1     0         106          68
        1     0         101          56      ! Sill
        1     0          82          40
        1     0          34          74      ! Shelf break
        1     0     155.000     112.000      !  Section 1
        1     0     153.238     110.857      !  Section 1
        1     0     151.476     109.714      !  Section 1
        1     0     149.714     108.571      !  Section 1
        1     0     147.952     107.429      !  Section 1
        1     0     146.190     106.286      !  Section 1
        1     0     144.429     105.143      !  Section 1
        1     0     142.667     104.000      !  Section 1
        1     0     140.905     102.857      !  Section 1
        1     0     139.143     101.714      !  Section 1
        1     0     137.381     100.571      !  Section 1
        1     0     135.619      99.429      !  Section 1
        1     0     133.857      98.286      !  Section 1
        1     0     132.095      97.143      !  Section 1
        1     0     130.333      96.000      !  Section 1
        1     0     128.571      94.857      !  Section 1
        1     0     126.810      93.714      !  Section 1
        1     0     125.048      92.571      !  Section 1
        1     0     123.286      91.429      !  Section 1
        1     0     121.524      90.286      !  Section 1
        1     0     119.762      89.143      !  Section 1
        1     0     118.000      88.000      !  Section 1
        1     0     150.000      90.000      !  Section 2
        1     0     148.375      91.375      !  Section 2
        1     0     146.750      92.750      !  Section 2
        1     0     145.125      94.125      !  Section 2
        1     0     143.500      95.500      !  Section 2
        1     0     141.875      96.875      !  Section 2
        1     0     140.250      98.250      !  Section 2
        1     0     138.625      99.625      !  Section 2
        1     0     137.000     101.000      !  Section 2
        1     0     135.375     102.375      !  Section 2
        1     0     133.750     103.750      !  Section 2
        1     0     132.125     105.125      !  Section 2
        1     0     130.500     106.500      !  Section 2
        1     0     128.875     107.875      !  Section 2
        1     0     127.250     109.250      !  Section 2
        1     0     125.625     110.625      !  Section 2
        1     0     124.000     112.000      !  Section 2
        1     0     132.000      58.000      !  Section 3
        1     0     130.412      59.471      !  Section 3
        1     0     128.824      60.941      !  Section 3
        1     0     127.235      62.412      !  Section 3
        1     0     125.647      63.882      !  Section 3
        1     0     124.059      65.353      !  Section 3
        1     0     122.471      66.824      !  Section 3
        1     0     120.882      68.294      !  Section 3
        1     0     119.294      69.765      !  Section 3
        1     0     117.706      71.235      !  Section 3
        1     0     116.118      72.706      !  Section 3
        1     0     114.529      74.176      !  Section 3
        1     0     112.941      75.647      !  Section 3
        1     0     111.353      77.118      !  Section 3
        1     0     109.765      78.588      !  Section 3
        1     0     108.176      80.059      !  Section 3
        1     0     106.588      81.529      !  Section 3
        1     0     105.000      83.000      !  Section 3
        1     0     113.000      41.000      !  Section 4
        1     0     111.636      42.636      !  Section 4
        1     0     110.273      44.273      !  Section 4
        1     0     108.909      45.909      !  Section 4
        1     0     107.545      47.545      !  Section 4
        1     0     106.182      49.182      !  Section 4
        1     0     104.818      50.818      !  Section 4
        1     0     103.455      52.455      !  Section 4
        1     0     102.091      54.091      !  Section 4
        1     0     100.727      55.727      !  Section 4
        1     0      99.364      57.364      !  Section 4
        1     0      98.000      59.000      !  Section 4
        1     0      96.636      60.636      !  Section 4
        1     0      95.273      62.273      !  Section 4
        1     0      93.909      63.909      !  Section 4
        1     0      92.545      65.545      !  Section 4
        1     0      91.182      67.182      !  Section 4
        1     0      89.818      68.818      !  Section 4
        1     0      88.455      70.455      !  Section 4
        1     0      87.091      72.091      !  Section 4
        1     0      85.727      73.727      !  Section 4
        1     0      84.364      75.364      !  Section 4
        1     0      83.000      77.000      !  Section 4
        1     0      75.000      10.000      !  Section 5
        1     0      75.524      12.000      !  Section 5
        1     0      76.048      14.000      !  Section 5
        1     0      76.571      16.000      !  Section 5
        1     0      77.095      18.000      !  Section 5
        1     0      77.619      20.000      !  Section 5
        1     0      78.143      22.000      !  Section 5
        1     0      78.667      24.000      !  Section 5
        1     0      79.190      26.000      !  Section 5
        1     0      79.714      28.000      !  Section 5
        1     0      80.238      30.000      !  Section 5
        1     0      80.762      32.000      !  Section 5
        1     0      81.286      34.000      !  Section 5
        1     0      81.810      36.000      !  Section 5
        1     0      82.333      38.000      !  Section 5
        1     0      82.857      40.000      !  Section 5
        1     0      83.381      42.000      !  Section 5
        1     0      83.905      44.000      !  Section 5
        1     0      84.429      46.000      !  Section 5
        1     0      84.952      48.000      !  Section 5
        1     0      85.476      50.000      !  Section 5
        1     0      86.000      52.000      !  Section 5
        1     0      30.000      39.000      !  Section 6
        1     0      31.667      40.500      !  Section 6
        1     0      33.333      42.000      !  Section 6
        1     0      35.000      43.500      !  Section 6
        1     0      36.667      45.000      !  Section 6
        1     0      38.333      46.500      !  Section 6
        1     0      40.000      48.000      !  Section 6
        1     0      41.667      49.500      !  Section 6
        1     0      43.333      51.000      !  Section 6
        1     0      45.000      52.500      !  Section 6
        1     0      46.667      54.000      !  Section 6
        1     0      48.333      55.500      !  Section 6
        1     0      50.000      57.000      !  Section 6
        1     0      25.000      77.000      !  Section 7
        1     0      27.200      77.000      !  Section 7
        1     0      29.400      77.000      !  Section 7
        1     0      31.600      77.000      !  Section 7
        1     0      33.800      77.000      !  Section 7
        1     0      36.000      77.000      !  Section 7
        1     0      38.200      77.000      !  Section 7
        1     0      40.400      77.000      !  Section 7
        1     0      42.600      77.000      !  Section 7
        1     0      44.800      77.000      !  Section 7
        1     0      47.000      77.000      !  Section 7
        1     0      15.000     100.000      !  Section 8
        1     0      17.091     100.000      !  Section 8
        1     0      19.182     100.000      !  Section 8
        1     0      21.273     100.000      !  Section 8
        1     0      23.364     100.000      !  Section 8
        1     0      25.455     100.000      !  Section 8
        1     0      27.545     100.000      !  Section 8
        1     0      29.636     100.000      !  Section 8
        1     0      31.727     100.000      !  Section 8
        1     0      33.818     100.000      !  Section 8
        1     0      35.909     100.000      !  Section 8
        1     0      38.000     100.000      !  Section 8
!
!  GLOSSARY:
!  =========
!
!  This input file provides the positions of stations data to be extracted
!  and written into STATIONS output file.  This file is use to monitor model
!  fields at frequent time intervals.  It is also used to sample model at
!  observation locations in order to build the penalty function used in
!  variational data assimilation.
!
!------------------------------------------------------------------------------
! Control Switch.
!------------------------------------------------------------------------------
!
! Lstations      Switch to control the writing of station data within nested
!                  and/or multiple connected grids. Ngrid values are expected.
!                  By default this switch is set to TRUE in "mod_scalars" for
!                  all grids when the CPP option STATIONS is activated.  The
!                  USER can control which grid to process by turning on/off
!                  this switch.
!
!------------------------------------------------------------------------------
! Logical switches (TRUE/FALSE) to activate writing of fields in STATIONS
! output file.  Except for tracer type variables, Ngrids values are expected
! for all switches.
!------------------------------------------------------------------------------
!
!  Sout(idUvel)  Write out 3D U-velocity component.
!  Sout(idVvel)  Write out 3D V-velocity component.
!  Sout(idWvel)  Write out 3D W-velocity component.
!  Sout(idOvel)  Write out 3D omega vertical velocity.
!  Sout(idUbar)  Write out 2D U-velocity component.
!  Sout(idVbar)  Write out 2D V-velocity component.
!  Sout(idFsur)  Write out free-surface.
!
!  Sout(idTvar)  Write out tracer type variables,  (NT,Ngrids) values are
!                  Expected.
!
!  Sout(idUsms)  Write out surface U-momentum stress.
!  Sout(idVsms)  Write out surface V-momentum stress.
!  Sout(idUbms)  Write out bottom  U-momentum stress.
!  Sout(idVbms)  Write out bottom  V-momentum stress.
!  Sout(idUbws)  Write out wind-induced, bottom U-wave stress.
!  Sout(idVbws)  Write out wind-induced, bottom V-wave stress.
!
!  Sout(idUbed)  Write out wind-induced, bed wave orbital U-velocity.
!  Sout(idVbed)  Write out wind-induced, bed wave orbital V-velocity.
!  Sout(idUbot)  Write out bottom U-momentum above bed.
!  Sout(idVbot)  Write out bottom V-momentum above bed.
!
!  Sout(idTsur)  Write out surface net heat and salt flux.
!  Sout(idLhea)  Write out latent heat flux.
!  Sout(idShea)  Write out sensible heat flux.
!  Sout(idLrad)  Write out long-wave radiation flux.
!  Sout(idSrad)  Write out short-wave radiation flux.
!  Sout(idEmPf)  Write out E-P flux.
!  Sout(idevap)  Write out evaporation rate.
!  Sout(idrain)  Write out precipitation rate.
!
!  Sout(idDano)  Write out density anomaly.
!  Sout(idVvis)  Write out vertical viscosity coefficient.
!  Sout(idTdif)  Write out vertical diffusion coefficient of temperature.
!  Sout(idSdif)  Write out vertical diffusion coefficient of salinity.
!  Sout(idHsbl)  Write out depth of oceanic surface boundary layer.
!  Sout(idHbbl)  Write out depth of oceanic bottom boundary layer.
!  Sout(idMtke)  Write out turbulent kinetic energy.
!  Sout(idMtls)  Write out turbulent kinetic energy times length scale.
!
!  Sout(idBott)  Write out exposed sediment layer properties, 1:MBOTP.
!
!------------------------------------------------------------------------------
! Station positions KEYWORDS.
!------------------------------------------------------------------------------
!
!  NSTATION      Number of stations to process in each nested grid. Ngrids
!                  values are expected.  These values are essential because
!                  the station arrays are dynamically allocated using these
!                  values.
!
!  POS           Station locations for all grids in any desired order.  The
!                  horizontal location for a particular station can be
!                  specified in terms of fractional (I,J) grid pairs (FLAG=0)
!                  or (longitude,latitude) grid pairs (FLAG=1). Here, FLAG is
!                  a special switch and may be used for multiple purposes.
!                  The GRID column indicates nested grid number to process.
!                  This value must be one in non-nested applications.  The
!                  COMMENT section is ignored during reading and may be used
!                  to help documentation.  This locations are used to
!                  interpolate model data before writting to output STATIONS
!                  file.  The stations locations are read using the following
!                  statement:
!
!                  is(1:Ngrids)=0
!                  DO WHILE (.true.)
!                    read (unit,*,ERR=10) igrid, flag, Xpos, Ypos
!                    ng=MAX(1,ABS(ng))
!                    is(ng)=ic(ng)+1
!                    SCALARS(ng)%Sflag(is(ng))=flag
!                    SCALARS(ng)%SposX(is(ng))=Xpos
!                    SCALARS(ng)%SposY(is(ng))=Ypos
!                  END DO
!
!                Since there is no decoding during the reading the stations
!                locations, the POS keyword must be the last one to process.
!                That is, it should be at the end of the input specification.
!
!
