!  Station Extraction Parameters.
!
!==============================================================================
!  Copyright (c) 2002-2016 The ROMS/TOMS Group                              ===
!========================================================= Hernan G. Arango ===
!                                                                             !
! Input parameters can be entered in ANY order, provided that the parameter   !
! KEYWORD (usually, upper case) is typed correctly followed by "="  or "=="   !
! symbols. Any comment lines are allowed and must begin with an exclamation   !
! mark (!) in column one.  Comments may  appear to the right of a parameter   !
! specification to improve documentation.  All comments will ignored during   !
! reading.  Blank lines are also allowed and ignored. Continuation lines in   !
! a parameter specification are allowed and must be preceded by a backslash   !
! (\).  In some instances, more than one value is required for a parameter.   !
! If fewer values are provided, the  last value  is assigned for the entire   !
! parameter array.  The multiplication symbol (*),  without blank spaces in   !
! between, is allowed for a parameter specification.  For example, in a two   !
! grids nested application:                                                   !
!                                                                             !
!    AKT_BAK == 2*1.0d-6  2*5.0d-6              ! m2/s                        !
!                                                                             !
! indicates that the first two entries of array AKT_BAK,  in fortran column-  !
! major order, will have the same value of "1.0d-6" for grid 1,  whereas the  !
! next two entries will have the same value of "5.0d-6" for grid 2.           !
!                                                                             !
! In multiple levels of nesting and/or multiple connected domains  step-ups,  !
! "Ngrids" entries are expected for some of these parameters.  In such case,  !
! the order of the entries for a parameter is extremely important.  It  must  !
! follow the same order (1:Ngrids) as in the state variable declaration. The  !
! USER may follow the above guidelines for specifying his/her values.  These  !
! parameters are marked by "==" plural symbol after the KEYWORD.              !
!                                                                             !
!==============================================================================
!
! Switch to control the writing of stations data within nested and/or multiple
! connected grids, [1:Ngrids].

   Lstations == T

! Logical switches (TRUE/FALSE) to activate writing of fields in STATION
! output file, [Sout(:,ng), ng=1, Ngrids].

Sout(idFsur) == T                          ! free-surface
Sout(idUbar) == T                          ! 2D U-velocity
Sout(idVbar) == T                          ! 2D V-velocity
Sout(idUvel) == T                          ! 3D U-velocity
Sout(idVvel) == T                          ! 3D V-velocity
Sout(idWvel) == T                          ! 3D W-velocity
Sout(idOvel) == T                          ! 3D omega vertical velocity

Sout(idTvar) == T T T T T T T T T T T T T T T T     ! all (NT) tracers

Sout(idUsms) == F                          ! surface U-stress
Sout(idVsms) == F                          ! surface V-stress
Sout(idUbms) == F                          ! bottom U-stress
Sout(idVbms) == F                          ! bottom V-stress
Sout(idUbws) == F                          ! bottom U-wave stress
Sout(idVbws) == F                          ! bottom V-wave stress

Sout(idUbed) == F                          ! bed wave orbital U-velocity
Sout(idVbed) == F                          ! bed wave orbital V-velocity
Sout(idUbot) == F                          ! bottom U-momentum above bed
Sout(idVbot) == F                          ! bottom V-momentum above bed

Sout(idTsur) == F F                        ! surface net heat and salt flux
Sout(idLhea) == F                          ! latent heat flux
Sout(idShea) == F                          ! sensible heat flux
Sout(idLrad) == F                          ! longwave radiation flux
Sout(idSrad) == F                          ! shortwave radiation flux
Sout(idevap) == F                          ! evaporation rate
Sout(idrain) == F                          ! precipitation rate

Sout(idDano) == F                          ! density anomaly
Sout(idVvis) == F                          ! vertical viscosity
Sout(idTdif) == F                          ! vertical T-diffusion
Sout(idSdif) == F                          ! vertical Salinity diffusion
Sout(idHsbl) == F                          ! depth of surface boundary layer
Sout(idHbbl) == F                          ! depth of bottom boundary layer
Sout(idMtke) == F                          ! turbulent kinetic energy
Sout(idMtls) == F                          ! turbulent length scale

! Logical switches for bio sediment variables.
Sout(idPONsed) == F
Sout(idOPALsed) == F
Sout(idDENITsed) == F
Sout(idPONbur) == F
Sout(idOPALbur) == F

! Logical switches (TRUE/FALSE) to activate writing of ice prognostic
! variables into HISTORY output file.
Sout(idUice) == T
Sout(idVice) == T
Sout(idAice) == T
Sout(idHice) == T
Sout(idTice) == T
Sout(idHsno) == T
Sout(idTimid) == T
Sout(idSfwat) == T
Sout(idTauiw) == F
Sout(idChuiw) == F
Sout(idAgeice) == T
Sout(idSig11) == T
Sout(idSig12) == T
Sout(idSig22) == T
Sout(idS0mk) == T
Sout(idT0mk) == T
Sout(idWfr) == F
Sout(idWai) == F
Sout(idWao) == F
Sout(idWio) == F
Sout(idWro) == F
Sout(idWdiv) == F

! Logical switches (TRUE/FALSE) to activate writing of exposed sediment
! layer properties into STATIONS output file.  Currently, MBOTP properties
! are expected for the bottom boundary layer and/or sediment models:
!
!   Sout(idBott(isd50)),  isd50 = 1        ! mean grain diameter
!   Sout(idBott(idens)),  idens = 2        ! mean grain density
!   Sout(idBott(iwsed)),  iwsed = 3        ! mean settling velocity
!   Sout(idBott(itauc)),  itauc = 4        ! critical erosion stress
!   Sout(idBott(irlen)),  irlen = 5        ! ripple length
!   Sout(idBott(irhgt)),  irhgt = 6        ! ripple height
!   Sout(idBott(ibwav)),  ibwav = 7        ! wave excursion amplitude
!   Sout(idBott(izdef)),  izdef = 8        ! default bottom roughness
!   Sout(idBott(izapp)),  izapp = 9        ! apparent bottom roughness
!   Sout(idBott(izNik)),  izNik = 10       ! Nikuradse bottom roughness
!   Sout(idBott(izbio)),  izbio = 11       ! biological bottom roughness
!   Sout(idBott(izbfm)),  izbfm = 12       ! bed form bottom roughness
!   Sout(idBott(izbld)),  izbld = 13       ! bed load bottom roughness
!   Sout(idBott(izwbl)),  izwbl = 14       ! wave bottom roughness
!   Sout(idBott(iactv)),  iactv = 15       ! active layer thickness
!   Sout(idBott(ishgt)),  ishgt = 16       ! saltation height
!
!                                 1 1 1 1 1 1 1
!               1 2 3 4 5 6 7 8 9 0 1 2 3 4 5 6

Sout(idBott) == F F F F F F F F F F F F F F F F

! Number of stations to process in each nested grid.  These values are
! essential because the station arrays are dynamically allocated using
! these values, [1:Ngrids].

    NSTATION ==  66

! Station locations for all grids in any desired order.  The horizontal
! location for a particular station may be specified in terms of fractional
! (I,J) grid pairs (FLAG=0) or (longitude,latitude) grid pairs (FLAG=1).
! Here, FLAG is a special switch and may be used for multiple purposes.
! The GRID column indicates nested grid number to process. This value must
! be one in non-nested applications.  The COMMENT section is ignored during
! reading and may be used to help documentation.

POS =  GRID  FLAG      X-POS       Y-POS     COMMENT

    1    1    223.820493836 58.2080210805
    1    1    223.815121683 58.2115207104
    1    1    223.80974848 58.2150201137
    1    1    223.804374224 58.2185192905
    1    1    223.798998918 58.2220182407
    1    1    223.793622559 58.2255169642
    1    1    223.788245148 58.2290154608
    1    1    223.782866686 58.2325137306
    1    1    223.77748717 58.2360117735
    1    1    223.772106602 58.2395095893
    1    1    223.766724981 58.2430071781
    1    1    223.761342306 58.2465045396
    1    1    223.755958578 58.2500016739
    1    1    223.750573796 58.2534985808
    1    1    223.745187961 58.2569952604
    1    1    223.739801071 58.2604917124
    1    1    223.734413126 58.2639879369
    1    1    223.729024127 58.2674839337
    1    1    223.723634073 58.2709797027
    1    1    223.718242964 58.274475244
    1    1    223.712850799 58.2779705574
    1    1    223.707457578 58.2814656427
    1    1    223.702063302 58.2849605001
    1    1    223.69666797 58.2884551293
    1    1    223.691271581 58.2919495303
    1    1    223.685874135 58.2954437031
    1    1    223.680475633 58.2989376474
    1    1    223.675076073 58.3024313633
    1    1    223.669675456 58.3059248507
    1    1    223.664273781 58.3094181095
    1    1    223.658871049 58.3129111396
    1    1    223.653467258 58.316403941
    1    1    223.64806241 58.3198965135
    1    1    223.642656502 58.3233888571
    1    1    223.637249536 58.3268809717
    1    1    224.428909905 58.2110750988
    1    1    224.435601791 58.2138734271
    1    1    224.442294723 58.2166714065
    1    1    224.448988703 58.2194690367
    1    1    224.45568373 58.2222663177
    1    1    224.462379805 58.2250632494
    1    1    224.469076926 58.2278598318
    1    1    224.475775096 58.2306560646
    1    1    224.482474313 58.2334519479
    1    1    224.489174577 58.2362474815
    1    1    224.49587589 58.2390426654
    1    1    224.50257825 58.2418374995
    1    1    224.509281659 58.2446319836
    1    1    224.515986116 58.2474261177
    1    1    224.522691621 58.2502199018
    1    1    224.529398175 58.2530133357
    1    1    224.536105777 58.2558064193
    1    1    224.542814428 58.2585991525
    1    1    224.549524127 58.2613915353
    1    1    224.556234876 58.2641835676
    1    1    224.562946674 58.2669752493
    1    1    224.56965952 58.2697665802
    1    1    224.576373416 58.2725575604
    1    1    224.583088362 58.2753481897
    1    1    224.589804356 58.278138468
    1    1    224.596521401 58.2809283953
    1    1    224.603239495 58.2837179714
    1    1    224.609958639 58.2865071962
    1    1    224.616678833 58.2892960698
    1    1    224.623400077 58.2920845919
    1    1    224.630122371 58.2948727626

!
!  GLOSSARY:
!  =========
!
!  This input file provides the positions of stations data to be extracted
!  and written into STATIONS output file.  This file is use to monitor model
!  fields at frequent time intervals.  It is also used to sample model at
!  observation locations in order to build the penalty function used in
!  variational data assimilation.
!
!------------------------------------------------------------------------------
! Control Switch.
!------------------------------------------------------------------------------
!
! Lstations      Switch to control the writing of station data within nested
!                  and/or multiple connected grids. Ngrid values are expected.
!                  By default this switch is set to TRUE in "mod_scalars" for
!                  all grids when the CPP option STATIONS is activated.  The
!                  USER can control which grid to process by turning on/off
!                  this switch.
!
!------------------------------------------------------------------------------
! Logical switches (TRUE/FALSE) to activate writing of fields in STATIONS
! output file.  Except for tracer type variables, Ngrids values are expected
! for all switches.
!------------------------------------------------------------------------------
!
!  Sout(idUvel)  Write out 3D U-velocity component.
!  Sout(idVvel)  Write out 3D V-velocity component.
!  Sout(idWvel)  Write out 3D W-velocity component.
!  Sout(idOvel)  Write out 3D omega vertical velocity.
!  Sout(idUbar)  Write out 2D U-velocity component.
!  Sout(idVbar)  Write out 2D V-velocity component.
!  Sout(idFsur)  Write out free-surface.
!
!  Sout(idTvar)  Write out tracer type variables,  (NT,Ngrids) values are
!                  Expected.
!
!  Sout(idUsms)  Write out surface U-momentum stress.
!  Sout(idVsms)  Write out surface V-momentum stress.
!  Sout(idUbms)  Write out bottom  U-momentum stress.
!  Sout(idVbms)  Write out bottom  V-momentum stress.
!  Sout(idUbws)  Write out wind-induced, bottom U-wave stress.
!  Sout(idVbws)  Write out wind-induced, bottom V-wave stress.
!
!  Sout(idUbed)  Write out wind-induced, bed wave orbital U-velocity.
!  Sout(idVbed)  Write out wind-induced, bed wave orbital V-velocity.
!  Sout(idUbot)  Write out bottom U-momentum above bed.
!  Sout(idVbot)  Write out bottom V-momentum above bed.
!
!  Sout(idTsur)  Write out surface net heat and salt flux.
!  Sout(idLhea)  Write out latent heat flux.
!  Sout(idShea)  Write out sensible heat flux.
!  Sout(idLrad)  Write out long-wave radiation flux.
!  Sout(idSrad)  Write out short-wave radiation flux.
!  Sout(idevap)  Write out evaporation rate.
!  Sout(idrain)  Write out precipitation rate.
!
!  Sout(idDano)  Write out density anomaly.
!  Sout(idVvis)  Write out vertical viscosity coefficient.
!  Sout(idTdif)  Write out vertical diffusion coefficient of temperature.
!  Sout(idSdif)  Write out vertical diffusion coefficient of salinity.
!  Sout(idHsbl)  Write out depth of oceanic surface boundary layer.
!  Sout(idHbbl)  Write out depth of oceanic bottom boundary layer.
!  Sout(idMtke)  Write out turbulent kinetic energy.
!  Sout(idMtls)  Write out turbulent kinetic energy times length scale.
!
!  Sout(idBott)  Write out exposed sediment layer properties, 1:MBOTP.
!
!------------------------------------------------------------------------------
! Station positions KEYWORDS.
!------------------------------------------------------------------------------
!
!  NSTATION      Number of stations to process in each nested grid. Ngrids
!                  values are expected.  These values are essential because
!                  the station arrays are dynamically allocated using these
!                  values.
!
!  POS           Station locations for all grids in any desired order.  The
!                  horizontal location for a particular station can be
!                  specified in terms of fractional (I,J) grid pairs (FLAG=0)
!                  or (longitude,latitude) grid pairs (FLAG=1). Here, FLAG is
!                  a special switch and may be used for multiple purposes.
!                  The GRID column indicates nested grid number to process.
!                  This value must be one in non-nested applications.  The
!                  COMMENT section is ignored during reading and may be used
!                  to help documentation.  This locations are used to
!                  interpolate model data before writting to output STATIONS
!                  file.  The stations locations are read using the following
!                  statement:
!
!                  is(1:Ngrids)=0
!                  DO WHILE (.true.)
!                    read (unit,*,ERR=10) igrid, flag, Xpos, Ypos
!                    ng=MAX(1,ABS(ng))
!                    is(ng)=ic(ng)+1
!                    SCALARS(ng)%Sflag(is(ng))=flag
!                    SCALARS(ng)%SposX(is(ng))=Xpos
!                    SCALARS(ng)%SposY(is(ng))=Ypos
!                  END DO
!
!                Since there is no decoding during the reading the stations
!                locations, the POS keyword must be the last one to process.
!                That is, it should be at the end of the input specification.
!
!
