!
!  ROMS/TOMS IO NetCDF variables.
!
!========================================================= Hernan G. Arango ===
!  Copyright (c) 2002-2013 The ROMS/TOMS Group                                !
!    Licensed under a MIT/X style license                                     !
!    See License_ROMS.txt                                                     !
!==============================================================================
!                                                                             !
!  This file contains all ROMS/TOMS Input/Output variables information.  It   !
!  is used to manage NetCDF files.  The following information is needed for   !
!  any IO variable:                                                           !
!                                                                             !
!       Vinfo(1)      Field variable name.                                    !
!       Vinfo(2)      Long-name attribute.                                    !
!       Vinfo(3)      Units attribute.                                        !
!       Vinfo(4)      Field type attribute.                                   !
!       Vinfo(5)      Associated time variable name.                          !
!       Vinfo(6)      Index variable name used in information arrays.         !
!       Vinfo(7)      Staggered C-grid variable type:                         !
!                       'nulvar' => non-grided variable.                      !
!                       'p2dvar' => 2D PHI-variable.                          !
!                       'r2dvar' => 2D RHO-variable.                          !
!                       'u2dvar' => 2D U-variable.                            !
!                       'v2dvar' => 2D V-variable.                            !
!                       'p3dvar' => 3D PHI-variable.                          !
!                       'r3dvar' => 3D RHO-variable.                          !
!                       'u3dvar' => 3D U-variable.                            !
!                       'v3dvar' => 3D V-variable.                            !
!                       'w3dvar' => 3D W-variable.                            !
!                       'b3dvar' => 3D BED-sediment.                          !
!       scale         Scale to convert input data to model units.             !
!                                                                             !
!  Enclose Vinfo variables with single quotes so this file can be read with   !
!  a free format statement.  The  Vinfo(6) variable must be unique and case   !
!  sensitive.  It is checked in "mod_ncparm" to set the appropiate ID index   !
!  for the information arrays.                                                !
!                                                                             !
!  Notice that there is commented information for each variable  including    !
!  input/output type and internal model units in brackets.  There are some    !
!  variables that are special and require a particular units for Input and    !
!  and output.                                                                !
!                                                                             !
!==============================================================================
!
! The value in Vinfo(5) here is used to name the unlimited dimension in all
! output NetCDF files.  By default it is set to 'time'.  Alternatively, you
! can use 'ocean_time' as dimension name so both variable and dimension
! names are the same.  This facilitates processing in some NetCDF packages.
! Notice that we use the prefix 'ocean' in the variable name to differentiate
! between oceanic and atmospheric time clocks in fully coupled applications.
!
! Notice that salinity does not have physical units. A commented [PSU] can
! be found below to indicate that the practical salinity scale was used to
! determine conductivity. See,
!
! http://marine.rutgers.edu/po/users/forum/viewtopic.php?t=294
!
!------------------------------------------------------------------------------
!  SVN Repository
!------------------------------------------------------------------------------
!

'$URL$'

!
!------------------------------------------------------------------------------
!  Model state variables.
!------------------------------------------------------------------------------
!

'ocean_time'                                       ! Input/Output
  'time since initialization'
  'second'                                         ! [s]
  'time, scalar, series'
  'ocean_time'
  'idtime'
  'nulvar'
  1.0d0

'bath'                                             ! Input/Output
  'bathymetry'
  'meter'                                          ! [m]
  'bathymetry, scalar, series'
  'ocean_time'
  'idbath'
  'r2dvar'
  1.0d0

'zeta'                                             ! Input/Output
  'free-surface'
  'meter'                                          ! [m]
  'free-surface, scalar, series'
  'ocean_time'
  'idFsur'
  'r2dvar'
  1.0d0

'ubar'                                             ! Input/Ouput
  'vertically integrated u-momentum component'
  'meter second-1'                                 ! [m/s]
  'ubar-velocity, scalar, series'
  'ocean_time'
  'idUbar'
  'u2dvar'
  1.0d0

'vbar'                                             ! Input/Output
  'vertically integrated v-momentum component'
  'meter second-1'                                 ! [m/s]
  'vbar-velocity, scalar, series'
  'ocean_time'
  'idVbar'
  'v2dvar'
  1.0d0

'ubar_eastward'                                    ! Ouput
  'eastward vertically integrated momentum component at RHO-points'
  'meter second-1'                                 ! [m/s]
  'ubar_eastward, scalar, series'
  'ocean_time'
  'idu2dE'
  'r2dvar'
  1.0d0

'vbar_northward'                                   ! Output
  'northward vertically integrated momentum component at RHO-points'
  'meter second-1'                                 ! [m/s]
  'vbar_northward, scalar, series'
  'ocean_time'
  'idv2dN'
  'r2dvar'
  1.0d0

'u'                                                ! Input/Output
  'u-momentum component'
  'meter second-1'                                 ! [m/s]
  'u-velocity, scalar, series'
  'ocean_time'
  'idUvel'
  'u3dvar'
  1.0d0

'v'                                                ! Input/Output
  'v-momentum component'
  'meter second-1'                                 ! [m/s]
  'v-velocity, scalar, series'
  'ocean_time'
  'idVvel'
  'v3dvar'
  1.0d0

'u_eastward'                                       ! Output
  'eastward momentum component at RHO-points'
  'meter second-1'                                 ! [m/s]
  'u_eastward, scalar, series'
  'ocean_time'
  'idu3dE'
  'r3dvar'
  1.0d0

'v_northward'                                      ! Output
  'northward momentum component at RHO-points'
  'meter second-1'                                 ! [m/s]
  'v_northward, scalar, series'
  'ocean_time'
  'idv3dN'
  'r3dvar'
  1.0d0

'w'                                                ! Output
  'vertical momentum component'
  'meter second-1'                                 ! [m/s]
  'w-velocity, scalar, series'
  'ocean_time'
  'idWvel'
  'w3dvar'
  1.0d0

'omega'                                            ! Output
  'S-coordinate vertical momentum component'
  'meter3 second-1'                                ! [m3/s]
  'omega, scalar, series'
  'ocean_time'
  'idOvel'
  'w3dvar'
  1.0d0

'omega'                                            ! Output
  'S-coordinate vertical momentum component'
  'meter3 second-1'                                ! [m3/s]
  'omega, scalar, series'
  'ocean_time'
  'idOclm'
  'w3dvar'
  1.0d0

'rho'                                              ! Output
  'density anomaly'
  'kilogram meter-3'                               ! [kg/m3]
  'density, scalar, series'
  'ocean_time'
  'idDano'
  'r3dvar'
  1.0d0

'temp'                                             ! Input/Output
  'potential temperature'
  'Celsius'                                        ! [Celsius]
  'temperature, scalar, series'
  'ocean_time'
  'idTvar(itemp)'
  'r3dvar'
  1.0d0

'salt'                                             ! Input/Output
  'salinity'
  'nondimensional'                                 ! [PSU]
  'salinity, scalar, series'
  'ocean_time'
  'idTvar(isalt)'
  'r3dvar'
  1.0d0

'z_rho'                                            ! Output
  'depth of RHO-points'
  'meter'                                          ! [meter]
  'z_rho, scalar, series'
  'ocean_time'
  'idpthR'
  'r3dvar'
  1.0d0

'z_u'                                              ! Output
  'depth of U-points'
  'meter'                                          ! [meter]
  'z_u, scalar, series'
  'ocean_time'
  'idpthU'
  'u3dvar'
  1.0d0

'z_v'                                              ! Output
  'depth of V-points'
  'meter'                                          ! [meter]
  'z_v, scalar, series'
  'ocean_time'
  'idpthV'
  'v3dvar'
  1.0d0

'z_w'                                              ! Output
  'depth of W-points'
  'meter'                                          ! [meter]
  'z_w, scalar, series'
  'ocean_time'
  'idpthW'
  'w3dvar'
  1.0d0

!
!------------------------------------------------------------------------------
!  Wet/dry masks.
!------------------------------------------------------------------------------
!
'wetdry_mask_psi'                                  ! Input/Output
  'wet/dry mask on PSI-points'
  'nondimensional'
  'wetdry_mask_psi, scalar, series'
  'ocean_time'
  'idPwet'
  'p2dvar'
  1.0d0

'wetdry_mask_rho'                                  ! Input/Output
  'wet/dry mask on RHO-points'
  'nondimensional'
  'wetdry_mask_rho, scalar, series'
  'ocean_time'
  'idRwet'
  'r2dvar'
  1.0d0

'wetdry_mask_u'                                    ! Input/Output
  'wet/dry mask on U-points'
  'nondimensional'
  'wetdry_mask_u, scalar, series'
  'ocean_time'
  'idUwet'
  'u2dvar'
  1.0d0

'wetdry_mask_v'                                    ! Input/Output
  'wet/dry mask on V-points'
  'nondimensional'
  'wetdry_mask_v, scalar, series'
  'ocean_time'
  'idVwet'
  'v2dvar'
  1.0d0

!
!------------------------------------------------------------------------------
!  Detided variables
!------------------------------------------------------------------------------
!

'CosW'                                             ! Input/Output
  'time-accumulated COS(omega(k)*t)'
  'radians'                                        ! [radians]
  'CosW, scalar'
  'tide_period'
  'idCosW'
  'nulvar'
  1.0d0

'SinW'                                             ! Input/Output
  'time-accumulated SIN(omega(k)*t)'
  'radians'                                        ! [radians]
  'SinW, scalar'
  'tide_period'
  'idSinW'
  'nulvar'
  1.0d0

'CosWCosW'                                         ! Input/Output
  'time-accumulated COS(omega(k)*t)*COS(omega(l)*t) matrix'
  'radians'                                        ! [radians]
  'CosWCosW, scalar'
  'tide_period'
  'idCos2'
  'nulvar'
  1.0d0

'SinWSinW'                                         ! Input/Output
  'time-accumulated SIN(omega(k)*t)*SIN(omega(l)*t) matrix'
  'radians'                                        ! [radians]
  'SinWSinW, scalar'
  'tide_period'
  'idSin2'
  'nulvar'
  1.0d0

'SinWCosW'                                         ! Input/Output
  'time-accumulated SIN(omega(k)*t)*COS(omega(l)*t) matrix'
  'radians'                                        ! [radians]
  'SinWCosW, scalar'
  'tide_period'
  'idSWCW'
  'nulvar'
  1.0d0

'zeta_tide'                                        ! Input/Output
  'time-accumulated free-surface tide harmonics'
  'meter'                                          ! [m]
  'zeta_tide, scalar'
  'ocean_time'
  'idFsuH'
  'r2dvar'
  1.0d0

'zeta_detided'                                     ! Output
  'detided free-surface'
  'meter'                                          ! [m]
  'zeta_detided, scalar, series'
  'ocean_time'
  'idFsuD'
  'r2dvar'
  1.0d0

'ubar_tide'                                        ! Input/Ouput
  'time-accumulated 2D u-momentum tide harmonics'
  'meter second-1'                                 ! [m/s]
  'ubar_tide, scalar'
  'ocean_time'
  'idu2dH'
  'u2dvar'
  1.0d0

'ubar_detided'                                     ! Ouput
  'detided 2D u-momentum'
  'meter second-1'                                 ! [m/s]
  'ubar_detided, scalar, series'
  'ocean_time'
  'idu2dD'
  'u2dvar'
  1.0d0

'vbar_tide'                                        ! Input/Output
  'time-accumulated 2D v-momentum tide harmonics'
  'meter second-1'                                 ! [m/s]
  'vbar_tide, scalar'
  'ocean_time'
  'idv2dH'
  'v2dvar'
  1.0d0

'vbar_detided'                                     ! Output
  'detided 2D v-momentum'
  'meter second-1'                                 ! [m/s]
  'vbar_detided, scalar, series'
  'ocean_time'
  'idv2dD'
  'v2dvar'
  1.0d0

'u_tide'                                           ! Input/Output
  'time-accumulated 3D u-momentum tide harmonics'
  'meter second-1'                                 ! [m/s]
  'u_tide, scalar'
  'ocean_time'
  'idu3dH'
  'u3dvar'
  1.0d0

'u_detided'                                        ! Output
  'detided 3D u-momentum'
  'meter second-1'                                 ! [m/s]
  'u_detided, scalar, series'
  'ocean_time'
  'idu3dD'
  'u3dvar'
  1.0d0

'v_tide'                                           ! Input/Output
  'time-accumulated 3D v-momentum tide harmonics'
  'meter second-1'                                 ! [m/s]
  'v_tide, scalar'
  'ocean_time'
  'idv3dH'
  'v3dvar'
  1.0d0

'v_detided'                                        ! Output
  'detided 3D v-momentum'
  'meter second-1'                                 ! [m/s]
  'v_detided, scalar, series'
  'ocean_time'
  'idv3dD'
  'v3dvar'
  1.0d0

'temp_tide'                                        ! Input/Output
  'time-accumulated potential temperature tide harmonics'
  'Celsius'                                        ! [Celsius]
  'temp_tide, scalar'
  'ocean_time'
  'idTrcH(itemp)'
  'r3dvar'
  1.0d0

'temp_detided'                                     ! Output
  'detided potential temperature'
  'Celsius'                                        ! [Celsius]
  'v_detided, scalar, series'
  'ocean_time'
  'idTrcD(itemp)'
  'r3dvar'
  1.0d0

'temp_tide'                                        ! Input/Output
  'time-accumulated potential temperature tide harmonics'
  'Celsius'                                        ! [Celsius]
  'temp_tide, scalar'
  'ocean_time'
  'idTrcH(itemp)'
  'r3dvar'
  1.0d0

'temp_detided'                                     ! Output
  'detided potential temperature'
  'Celsius'                                        ! [Celsius]
  'temp_detided, scalar, series'
  'ocean_time'
  'idTrcD(itemp)'
  'r3dvar'
  1.0d0

'salt_tide'                                        ! Input/Output
  'time-accumulated salinity tide harmonics'
  'nondimensional'                                 ! [PSU]
  'salt_tide, scalar'
  'ocean_time'
  'idTrcH(isalt)'
  'r3dvar'
  1.0d0

'salt_detided'                                     ! Output
  'detided potential temperature'
  'nondimensional'                                 ! [PSU]
  'salt_detided, scalar, series'
  'ocean_time'
  'idTrcD(isalt)'
  'r3dvar'
  1.0d0

!
!------------------------------------------------------------------------------
!  Momentum stress variables.
!------------------------------------------------------------------------------
!

'sustr'                                            ! Input/Output
  'surface u-momentum stress'
  'newton meter-2'                                 ! Input:  [N/m2]
  'surface u-momentum stress, scalar, series'      ! [m2/s2]
  'sms_time'                                       ! Output: [N/m2]
  'idUsms'
  'u2dvar'
  1.0d0

'svstr'                                            ! Input/Output
  'surface v-momentum stress'
  'newton meter-2'                                 ! Input:  [N/m2]
  'surface v-momentum stress, scalar, series'      ! [m2/s2]
  'sms_time'                                       ! Output: [N/m2]
  'idVsms'
  'v2dvar'
  1.0d0

'bustr'                                            ! Output
  'bottom u-momentum stress'
  'newton meter-2'                                 ! [m2/s2]
  'bottom u-momentum stress, scalar, series'       ! Output: [N/m2]
  'bms_time'
  'idUbms'
  'u2dvar'
  1.0d0

'bvstr'                                            ! Output
  'bottom v-momentum stress'
  'newton meter-2'                                 ! [m2/s2]
  'bottom v-momentum stress, scalar, series'       ! Output: [N/m2]
  'bms_time'
  'idVbms'
  'v2dvar'
  1.0d0

'bustrc'                                           ! Output
  'current-induced, bottom u-momentum stress'
  'newton meter-2'                                 ! [m2/s2]
  'bottom u-momentum stress, scalar, series'       ! Output: [N/m2]
  'bms_time'
  'idUbrs'
  'r2dvar'
  1.0d0

'bvstrc'                                           ! Ouput
  'current-induced, bottom v-momentum stress'
  'newton meter-2'                                 ! [m2/s2]
  'bottom v-momentum stress, scalar, series'       ! Output: [N/m2]
  'bms_time'
  'idVbrs'
  'r2dvar'
  1.0d0

'bustrw'                                           ! Output
  'wind-induced, bottom u-momentum stress'
  'newton meter-2'                                 ! [m2/s2]
  'bottom u-wave stress, scalar, series'           ! Output: [N/m2]
  'ocean_time'
  'idUbws'
  'r2dvar'
  1.0d0

'bvstrw'                                           ! Output
  'wind-induced, bottom v-momentum stress'
  'newton meter-2'                                 ! [m2/s2]
  'bottom v-wave stress, scalar, series'           ! Output: [N/m2]
  'ocean_time'
  'idVbws'
  'r2dvar'
  1.0d0

'bustrcwmax'                                       ! Output
  'maximum wind and current, bottom u-wave stress'
  'newton meter-2'                                 ! [m2/s2]
  'bustrcwmax, scalar, series'                     ! Output: [N/m2]
  'ocean_time'
  'idUbcs'
  'u2dvar'
  1.0d0

'bvstrcwmax'                                       ! Output
  'maximum wind and current, bottom v-wave stress'
  'newton meter-2'                                 ! [m2/s2]
  'bustrcwmax, scalar, series'                     ! Output: [N/m2]
  'ocean_time'
  'idVbcs'
  'v2dvar'
  1.0d0

'Ubot'                                             ! Output
  'wind-induced, bed wave orbital u-velocity'
  'meter second-1'                                 ! [m/s]
  'bed wave u-velocity, scalar, series'
  'ocean_time'
  'idUbot'
  'r2dvar'
  1.0d0

'Vbot'                                             ! Output
  'wind-induced, bed wave orbital v-velocity'
  'meter second-1'                                 ! [m/s]
  'bed wave v-velocity, scalar, series'
  'ocean_time'
  'idVbot'
  'r2dvar'
  1.0d0

'Ur'                                               ! Output
  'bottom u-momentum above bed'
  'meter second-1'                                 ! [m/s]
  'bottom u-velocity, scalar, series'
  'ocean_time'
  'idUbur'
  'r2dvar'
  1.0d0

'Vr'                                               ! Output
  'bottom v-momentum above bed'
  'meter second-1'                                 ! [m/s]
  'bottom v-velocity, scalar, series'
  'ocean_time'
  'idVbvr'
  'r2dvar'
  1.0d0
!
!------------------------------------------------------------------------------
!  Tracer flux variables.
!------------------------------------------------------------------------------
!

'shflux'                                           ! Input/Output
  'surface net heat flux'
  'watt meter-2'                                   ! Input:  [Watt/m2]
  'surface heat flux, scalar, series'              ! [Celsius m/s]
  'shf_time'                                       ! Output: [Watt/m2]
  'idTsur(itemp)'
  'r2dvar'
  1.0d0

'dQdSST'                                           ! Input
  'surface net heat flux sensitivity to SST'
  'watt meter-2 Celsius-1'                         ! Input:  [Watt/m2]
  'dQdSST, scalar, series'                         ! [Celsius m/s]
  'sst_time'
  'iddQdT'
  'r2dvar'
  1.0d0

'ssflux'                                           ! Output
  'surface net salt flux, (E-P)*SALT'
  'meter second-1'                                 ! [PSU m/s]
  'surface net salt flux, scalar, series'
  'ssf_time'
  'idTsur(isalt)'
  'r2dvar'
  1.0d0

'swflux'                                           ! Input
  'surface net freswater flux, (E-P)'
  'centimeter day-1'                               ! Input:  [m/s]
  'surface net salt flux, scalar, series'          ! [PSU m/s]
  'swf_time'
  'idsfwf'
  'r2dvar'
  1.157407d-7                                      ! 0.01/86400

'EminusP'                                          ! Input/Output
  'bulk_flux surface net freswater flux, (E-P)'
  'meter second-1'                                 ! computed by NLM ROMS
  'EminusP, scalar, series'                        ! bulk_flux.F and
  'ocean_time'                                     ! needed in adjoint-based
  'idEmPf'                                         ! applications
  'r2dvar'
  1.0d0

'SSSf'                                             ! Input/Output
  'surface net freswater flux from salinity nudging'
  'meter second-1'                                 ! computed by NLM ROMS
  'SSSf, scalar, series'                           ! bulk_flux.F and
  'ocean_time'                                     ! needed in adjoint-based
  'idSSSf'                                         ! applications
  'r2dvar'
  1.0d0

'fastice'                                          ! Input/Output
  'landfast ice extent'
  '1'                                              ! 
  'FastIce, scalar, series'                        ! 
  'ocean_time'                                     !
  'idFastIce'                                      !
  'r2dvar'
  1.0d0

'bhflux'                                           ! Input
  'bottom net heat flux'
  'watt meter-2'                                   ! Input:  [Watt/m2]
  'bottom heat flux, scalar, series'               ! [Celsius m/s]
  'bhf_time'
  'idTbot(itemp)'
  'r2dvar'
  1.0d0

'bwflux'                                           ! Input
  'bottom net freshwater flux'
  'centimeter day-1'                               ! Input:  [m/s]
  'bottom water flux, scalar, series'              ! [PSU m/s]
  'bwf_time'
  'idTbot(isalt)'
  'r2dvar'
  1.157407d-7                                     ! 0.01/86400

!
!------------------------------------------------------------------------------
! Ice-related variables
!------------------------------------------------------------------------------
!

'prate'
  'precipitation rate'
  'kilogram meter-2 second-1'
  'precipitation rate, scalar, series'
  'prate_time'
  'idPrate'
  'r2dvar'
  1.0d0

'icec'
  'observed ice concentration'
  'nondimensional'
  'ice concentration, scalar series'
  'icec_time'
  'idIcec'
  'r2dvar'
  1.0d0

'skt'
  'skin temperature'
  'degrees Kelvin'
  'skin temperature, scalar, series'
  'skt_time'
  'idSkt'
  'r2dvar'
  1.0d0

'uice'
  'u-component of ice velocity'
  'meter second-1'
  'u-component of ice velocity, scalar, series'
  'ocean_time'
  'idUice'
  'u2dvar'
  1.0d0

'uice'
  'u-component of ice velocity'
  'meter second-1'
  'u-component of ice velocity, scalar, series'
  'ocean_time'
  'idUIclm'
  'u2dvar'
  1.0d0

'vice'
  'v-component of ice velocity'
  'meter second-1'
  'v-component of ice velocity, scalar, series'
  'ocean_time'
  'idVice'
  'v2dvar'
  1.0d0

'vice'
  'v-component of ice velocity'
  'meter second-1'
  'v-component of ice velocity, scalar, series'
  'ocean_time'
  'idVIclm'
  'v2dvar'
  1.0d0

'uice_eastward'                                    ! Output
  'ice eastward momentum component at RHO-points'
  'meter second-1'                                 ! [m/s]
  'uice_eastward, scalar, series'
  'ocean_time'
  'idUiceE'
  'r2dvar'
  1.0d0

'vice_northward'                                   ! Output
  'ice northward momentum component at RHO-points'
  'meter second-1'                                 ! [m/s]
  'vice_northward, scalar, series'
  'ocean_time'
  'idViceN'
  'r2dvar'
  1.0d0

'aice'
  'fraction of cell covered by ice'
  'nondimensional'
  'ice concentration, scalar, series'
  'ocean_time'
  'idAice'
  'r2dvar'
  1.0d0

'aice'
  'fraction of cell covered by ice'
  'nondimensional'
  'ice concentration, scalar, series'
  'ocean_time'
  'idAIclm'
  'r2dvar'
  1.0d0

'hice'
  'average ice thickness in cell'
  'meter'
  'ice thickness, scalar, series'
  'ocean_time'
  'idHice'
  'r2dvar'
  1.0d0

'hice'
  'average ice thickness in cell'
  'meter'
  'ice thickness, scalar, series'
  'ocean_time'
  'idHIclm'
  'r2dvar'
  1.0d0

'snow_thick'
  'thickness of snow cover'
  'meter'
  'snow thickness, scalar, series'
  'ocean_time'
  'idHsno'
  'r2dvar'
  1.0d0

'snow_thick'
  'thickness of snow cover'
  'meter'
  'snow thickness, scalar, series'
  'ocean_time'
  'idHSNclm'
  'r2dvar'
  1.0d0

'tisrf'
  'temperature of ice surface'
  'degrees Celcius'
  'surface temperature, scalar, series'
  'ocean_time'
  'idTice'
  'r2dvar'
  1.0d0

'ti'
  'interior ice temperature'
  'degrees Celcius'
  'interior temperature, scalar, series'
  'ocean_time'
  'idTimid'
  'r2dvar'
  1.0d0

'tau_iw'
  'ice-water friction velocity'
  'meter second-1'
  'friction velocity, scalar, series'
  'ocean_time'
  'idTauiw'
  'r2dvar'
  1.0d0

'chu_iw'
  'ice-water momentum transfer coefficient'
  'meter second-1'
  'transfer coefficient, scalar, series'
  'ocean_time'
  'idChuiw'
  'r2dvar'
  1.0d0

's0mk'
  'salinity of molecular sub-layer under ice'
  'nondimensional'
  'salinity, scalar, series'
  'ocean_time'
  'idS0mk'
  'r2dvar'
  1.0d0

't0mk'
  'temperature of molecular sub-layer under ice'
  'degrees Celsius'
  'temperature, scalar, series'
  'ocean_time'
  'idT0mk'
  'r2dvar'
  1.0d0

'wfr'
  'rate of frazil ice growth'
  'm^3 s-1'
  'freeze rate, scalar, series'
  'ocean_time'
  'idWfr'
  'r2dvar'
  1.0d0

'wai'
  'rate of ice melt on top'
  'm^3 s-1'
  'freeze/melt rate, scalar, series'
  'ocean_time'
  'idWai'
  'r2dvar'
  1.0d0

'wao'
  'rate of ice growth in leads'
  'm^3 s-1'
  'freeze/melt rate, scalar, series'
  'ocean_time'
  'idWao'
  'r2dvar'
  1.0d0

'wio'
  'rate of ice growth under ice'
  'm^3 s-1'
  'freeze rate, scalar, series'
  'ocean_time'
  'idWio'
  'r2dvar'
  1.0d0

'wro'
  'rate of ice melt runoff'
  'm^3 s-1'
  'melt runoff rate, scalar, series'
  'ocean_time'
  'idWro'
  'r2dvar'
  1.0d0

'wdiv'
  'rate of ice divergence'
  'm^3 s-1'
  'ice divergence rate, scalar, series'
  'ocean_time'
  'idWdiv'
  'r2dvar'
  1.0d0

'apond'
  'surface melt water fraction on ice'
  'meter'
  'melt water fraction, scalar, series'
  'ocean_time'
  'idApond'
  'r2dvar'
  1.0d0

'hpond'
  'surface melt water thickness on ice'
  'meter'
  'melt water thickness, scalar, series'
  'ocean_time'
  'idHpond'
  'r2dvar'
  1.0d0

'iomflx'
  'ice-ocean mass flux'
  'meter second-1'
  'ice-ocean mass flux, scalar, series'
  'ocean_time'
  'idIomflx'
  'r2dvar'
  1.0d0

'ageice'
  'age of the ice'
  'sec'
  'ice age, scalar, series'
  'ocean_time'
  'idAgeice'
  'r2dvar'
  1.0d0

'sig11'
  'internal ice stress 11 component'
  'Newton meter-1'
  'ice stress 11, scalar, series'
  'ocean_time'
  'idSig11'
  'r2dvar'
  1.0d0

'sig22'
  'internal ice stress 22 component'
  'Newton meter-1'
  'ice stress 22, scalar, series'
  'ocean_time'
  'idSig22'
  'r2dvar'
  1.0d0

'sig12'
  'internal ice stress 12 component'
  'Newton meter-1'
  'ice stress 12, scalar, series'
  'ocean_time'
  'idSig12'
  'r2dvar'
  1.0d0

'sig11'
  'internal ice stress 11 component'
  'Newton meter-1'
  'ice stress 11, scalar, series'
  'ocean_time'
  'idS11clm'
  'r2dvar'
  1.0d0

'sig22'
  'internal ice stress 22 component'
  'Newton meter-1'
  'ice stress 22, scalar, series'
  'ocean_time'
  'idS22clm'
  'r2dvar'
  1.0d0

'sig12'
  'internal ice stress 12 component'
  'Newton meter-1'
  'ice stress 12, scalar, series'
  'ocean_time'
  'idS12clm'
  'r2dvar'
  1.0d0

'Runoff'
  'Fresh water runoff from land'
  'kg/s/m^2'
  'runoff, scalar, series'
  'runoff_time'
  'idRunoff'
  'r2dvar'
  1.0d0

'wg2d'
  'surface wind gustiness squared from NCEP fluxes'
  'meter2 second-2'
  'gustiness squared, scalar, series'
  'ocean_time'
  'idWg2d'
  'r2dvar'
  1.0d0

'cdd'
  'momentum transfer coefficient from NCEP fluxes'
  'nondimensional'
  'transfer coefficient, scalar, series'
  'ocean_time'
  'idCdd'
  'r2dvar'
  1.0d0

'chd'
  'sensible heat transfer coefficient from NCEP'
  'nondimensional'
  'transfer coefficient, scalar, series'
  'ocean_time'
  'idChd'
  'r2dvar'
  1.0d0

'ced'
  'latent heat transfer coefficient from NCEP'
  'nondimensional'
  'transfer coefficient, scalar, series'
  'ocean_time'
  'idCed'
  'r2dvar'
  1.0d0

'wg2m'
  'surface wind gustiness squared from model'
  'meter2 second-2'
  'gustiness squared, scalar, series'
  'ocean_time'
  'idWg2m'
  'r2dvar'
  1.0d0

'cdm'
  'momentum transfer coefficient from model'
  'nondimensional'
  'transfer coefficient, scalar, series'
  'ocean_time'
  'idCdm'
  'r2dvar'
  1.0d0

'chm'
  'sensible heat transfer coefficient from model'
  'nondimensional'
  'transfer coefficient, scalar, series'
  'ocean_time'
  'idChm'
  'r2dvar'
  1.0d0

'cem'
  'latent heat transfer coefficient from model'
  'nondimensional'
  'transfer coefficient, scalar, series'
  'ocean_time'
  'idCem'
  'r2dvar'
  1.0d0

'rhoa'
  'near-surface air density from NCEP fluxes'
  'kg meter-3'
  'air density, scalar, series'
  'ocean_time'
  'idRhoa'
  'r2dvar'
  1.0d0

!
!------------------------------------------------------------------------------
!  Mixing variables.
!------------------------------------------------------------------------------
!

'tke'                                              ! Output
  'turbulent kinetic energy'
  'meter2 second-2'                                ! [m2/s2]
  'tke, scalar, series'
  'ocean_time'
  'idMtke'
  'w3dvar'
  1.0d0

'gls'                                              ! Output
  'turbulent generic length scale'
  'meter3 second-2'                                ! [m3/s2]
  'gls, scalar, series'
  'ocean_time'
  'idMtls'
  'w3dvar'
  1.0d0

'Lscale'                                           ! Output
  'vertical mixing turbulent length scale'
  'meter'                                          ! [m]
  'Lscale, scalar, series'
  'ocean_time'
  'idVmLS'
  'w3dvar'
  1.0d0

'AKv'                                              ! Input/Output
  'vertical viscosity coefficient'
  'meter2 second-1'                                ! [m2/s]
  'AKv, scalar, series'
  'ocean_time'
  'idVvis'
  'w3dvar'
  1.0d0

'AKt'                                              ! Input/Output
  'temperature vertical diffusion coefficient'
  'meter2 second-1'                                ! [m2/s]
  'AKt, scalar, series'
  'ocean_time'
  'idTdif'
  'w3dvar'
  1.0d0

'AKs'                                              ! Input/Output
  'salinity vertical diffusion coefficient'
  'meter2 second-1'                                ! [m2/s]
  'AKs, scalar, series'
  'ocean_time'
  'idSdif'
  'w3dvar'
  1.0d0

'AKk'                                              ! Input/Output
  'Turbulent kinetic energy vertical diffusion coefficient'
  'meter2 second-1'                                ! [m2/s]
  'AKk, scalar, series'
  'ocean_time'
  'idVmKK'
  'w3dvar'
  1.0d0

'AKp'                                              ! Input/Output
  'Turbulent length scale vertical diffusion coefficient'
  'meter2 second-1'                                ! [m2/s]
  'AKp, scalar, series'
  'ocean_time'
  'idVmKP'
  'w3dvar'
  1.0d0

'ghat_temp'                                        ! Input/Output
  'potential temperature nonlocal transport'
  'nondimensional'                                 ! [nondimensional]
  'ghat_temp, scalar, series'
  'ocean_time'
  'idGhat(itemp)'
  'w3dvar'
  1.0d0

'ghat_salt'                                        ! Input/Output
  'salinity nonlocal transport'
  'nondimensional'                                 ! {nondimensional]
  'ghat_salt, scalar, series'
  'ocean_time'
  'idGhat(isalt)'
  'w3dvar'
  1.0d0

!
!------------------------------------------------------------------------------
!  Boundary variables.
!------------------------------------------------------------------------------
!

'zeta_west'                                        ! Input
  'free-surface western boundary condition'
  'meter'                                          ! [m]
  'zeta_west, scalar, series'
  'ocean_time'
  'idZbry(iwest)'
  'nulvar'
  1.0d0

'zeta_east'                                        ! Input
  'free-surface eastern boundary condition'
  'meter'                                          ! [m]
  'zeta_east, scalar, series'
  'ocean_time'
  'idZbry(ieast)'
  'nulvar'
  1.0d0

'zeta_south'                                       ! Input
  'free-surface southern boundary condition'
  'meter'                                          ! [m]
  'zeta_south, scalar, series'
  'ocean_time'
  'idZbry(isouth)'
  'nulvar'
  1.0d0

'zeta_north'                                       ! Input
  'free-surface northern boundary condition'
  'meter'                                          ! [m]
  'zeta_north, scalar, series'
  'ocean_time'
  'idZbry(inorth)'
  'nulvar'
  1.0d0

'ubar_west'                                        ! Input
  '2D u-momentum western boundary condition'
  'meter second-1'                                 ! [m/s]
  'ubar_west, scalar, series'
  'ocean_time'
  'idU2bc(iwest)'
  'nulvar'
  1.0d0

'ubar_east'                                        ! Input
  '2D u-momentum eastern boundary condition'
  'meter second-1'                                 ! [m/s]
  'ubar_east, scalar, series'
  'ocean_time'
  'idU2bc(ieast)'
  'nulvar'
  1.0d0

'ubar_south'                                       ! Input
  '2D u-momentum southern boundary condition'
  'meter second-1'                                 ! [m/s]
  'ubar_south, scalar, series'
  'ocean_time'
  'idU2bc(isouth)'
  'nulvar'
  1.0d0

'ubar_north'                                       ! Input
  '2D u-momentum northern boundary condition'
  'meter second-1'                                 ! [m/s]
  'ubar_north, scalar, series'
  'ocean_time'
  'idU2bc(inorth)'
  'nulvar'
  1.0d0

'vbar_west'                                        ! Input
  '2D v-momentum western boundary condition'
  'meter second-1'                                 ! [m/s]
  'vbar_west, scalar, series'
  'ocean_time'
  'idV2bc(iwest)'
  'nulvar'
  1.0d0

'vbar_east'                                        ! Input
  '2D v-momentum eastern boundary condition'
  'meter second-1'                                 ! [m/s]
  'vbar_east, scalar, series'
  'ocean_time'
  'idV2bc(ieast)'
  'nulvar'
  1.0d0

'vbar_south'                                       ! Input
  '2D v-momentum southern boundary condition'
  'meter second-1'                                 ! [m/s]
  'vbar_south, scalar, series'
  'ocean_time'
  'idV2bc(isouth)'
  'nulvar'
  1.0d0

'vbar_north'                                       ! Input
  '2D v-momentum northern boundary condition'
  'meter second-1'                                 ! [m/s]
  'vbar_north, scalar, series'
  'ocean_time'
  'idV2bc(inorth)'
  'nulvar'
  1.0d0

'u_west'                                           ! Input
  '3D u-momentum western boundary condition'
  'meter second-1'                                 ! [m/s]
  'u_west, scalar, series'
  'ocean_time'
  'idU3bc(iwest)'
  'nulvar'
  1.0d0

'u_east'                                           ! Input
  '3D u-momentum eastern boundary condition'
  'meter second-1'                                 ! [m/s]
  'u_east, scalar, series'
  'ocean_time'
  'idU3bc(ieast)'
  'nulvar'
  1.0d0

'u_south'                                          ! Input
  '3D u-momentum southern boundary condition'
  'meter second-1'                                 ! [m/s]
  'u_south, scalar, series'
  'ocean_time'
  'idU3bc(isouth)'
  'nulvar'
  1.0d0

'u_north'                                          ! Input
  '3D u-momentum northern boundary condition'
  'meter second-1'                                 ! [m/s]
  'u_north, scalar, series'
  'ocean_time'
  'idU3bc(inorth)'
  'nulvar'
  1.0d0

'v_west'                                           ! Input
  '3D v-momentum western boundary condition'
  'meter second-1'                                 ! [m/s]
  'v_west, scalar, series'
  'ocean_time'
  'idV3bc(iwest)'
  'nulvar'
  1.0d0

'v_east'                                           ! Input
  '3D v-momentum eastern boundary condition'
  'meter second-1'                                 ! [m/s]
  'v_east, scalar, series'
  'ocean_time'
  'idV3bc(ieast)'
  'nulvar'
  1.0d0

'v_south'                                          ! Input
  '3D v-momentum southern boundary condition'
  'meter second-1'                                 ! [m/s]
  'v_south, scalar, series'
  'ocean_time'
  'idV3bc(isouth)'
  'nulvar'
  1.0d0

'v_north'                                          ! Input
  '3D v-momentum northern boundary condition'
  'meter second-1'                                 ! [m/s]
  'v_north, scalar, series'
  'ocean_time'
  'idV3bc(inorth)'
  'nulvar'
  1.0d0

'temp_west'                                        ! Input
  'temperature western boundary condition'
  'Celsius'                                        ! [Celsius]
  'temp_west, scalar, series'
  'ocean_time'
  'idTbry(iwest,itemp)'
  'nulvar'
  1.0d0

'temp_east'                                        ! Input
  'temperature eastern boundary condition'
  'Celsius'                                        ! [Celsius]
  'temp_east, scalar, series'
  'ocean_time'
  'idTbry(ieast,itemp)'
  'nulvar'
  1.0d0

'temp_south'                                       ! Input
  'temperature southern boundary condition'
  'Celsius'                                        ! [Celsius]
  'temp_south, scalar, series'
  'ocean_time'
  'idTbry(isouth,itemp)'
  'nulvar'
  1.0d0

'temp_north'                                       ! Input
  'temperature northern boundary condition'
  'Celsius'                                        ! [Celsius]
  'temp_north, scalar, series'
  'ocean_time'
  'idTbry(inorth,itemp)'
  'nulvar'
  1.0d0

'salt_west'                                        ! Input
  'salinity western boundary condition'
  'nondimensional'                                 ! [PSU]
  'salt_west, scalar, series'
  'ocean_time'
  'idTbry(iwest,isalt)'
  'nulvar'
  1.0d0

'salt_east'                                        ! Input
  'salinity eastern boundary condition'
  'nondimensional'                                 ! [PSU]
  'salt_east, scalar, series'
  'ocean_time'
  'idTbry(ieast,isalt)'
  'nulvar'
  1.0d0

'salt_south'                                       ! Input
  'salinity southern boundary condition'
  'nondimensional'                                 ! [PSU]
  'salt_south, scalar, series'
  'ocean_time'
  'idTbry(isouth,isalt)'
  'nulvar'
  1.0d0

'salt_north'                                       ! Input
  'salinity northern boundary condition'
  'nondimensional'                                 ! [PSU]
  'salt_north, scalar, series'
  'ocean_time'
  'idTbry(inorth,isalt)'
  'nulvar'
  1.0d0

'aice_west'
  'ice concentration western boundary condition'
  ' '
  'aice_west, scalar, series'
  'bry_time'
  'idAibc(iwest)'
  'nulvar'
  1.0d0

'aice_east'
  'ice concentration eastern boundary condition'
  ' '
  'aice_east, scalar, series'
  'bry_time'
  'idAibc(ieast)'
  'nulvar'
  1.0d0

'aice_north'
  'ice concentration northern boundary condition'
  ' '
  'aice_north, scalar, series'
  'bry_time'
  'idAibc(inorth)'
  'nulvar'
  1.0d0

'aice_south'
  'ice concentration southern boundary condition'
  ' '
  'aice_south, scalar, series'
  'bry_time'
  'idAibc(isouth)'
  'nulvar'
  1.0d0

'hice_west'
  'ice thickness western boundary condition'
  'meter'
  'hice_west, scalar, series'
  'bry_time'
  'idHibc(iwest)'
  'nulvar'
  1.0d0

'hice_east'
  'ice thickness eastern boundary condition'
  'meter'
  'hice_east, scalar, series'
  'bry_time'
  'idHibc(ieast)'
  'nulvar'
  1.0d0

'hice_north'
  'ice thickness northern boundary condition'
  'meter'
  'hice_north, scalar, series'
  'bry_time'
  'idHibc(inorth)'
  'nulvar'
  1.0d0

'hice_south'
  'ice thickness southern boundary condition'
  'meter'
  'hice_south, scalar, series'
  'bry_time'
  'idHibc(isouth)'
  'nulvar'
  1.0d0

'snow_thick_west'
  'snow thickness western boundary condition'
  'meter'
  'snow_thick_west, scalar, series'
  'bry_time'
  'idHsnbc(iwest)'
  'nulvar'
  1.0d0

'snow_thick_east'
  'snow thickness eastern boundary condition'
  'meter'
  'snow_thick_east, scalar, series'
  'bry_time'
  'idHsnbc(ieast)'
  'nulvar'
  1.0d0

'snow_thick_north'
  'snow thickness northern boundary condition'
  'meter'
  'snow_thick_north, scalar, series'
  'bry_time'
  'idHsnbc(inorth)'
  'nulvar'
  1.0d0

'snow_thick_south'
  'snow thickness southern boundary condition'
  'meter'
  'snow_thick_south, scalar, series'
  'bry_time'
  'idHsnbc(isouth)'
  'nulvar'
  1.0d0

'ti_west'
  'ice interior temperature western boundary condition'
  'Celsius'
  'ti_west, scalar, series'
  'bry_time'
  'idTibc(iwest)'
  'nulvar'
  1.0d0

'ti_east'
  'ice interior temperature eastern boundary condition'
  'Celsius'
  'ti_east, scalar, series'
  'bry_time'
  'idTibc(ieast)'
  'nulvar'
  1.0d0

'ti_north'
  'ice interior temperature northern boundary condition'
  'Celsius'
  'ti_north, scalar, series'
  'bry_time'
  'idTibc(inorth)'
  'nulvar'
  1.0d0

'ti_south'
  'ice interior temperature southern boundary condition'
  'Celsius'
  'ti_south, scalar, series'
  'bry_time'
  'idTibc(isouth)'
  'nulvar'
  1.0d0

'sfwat_west'
  'surface meltwater thickness western boundary condition'
  'meter'
  'sfwat_west, scalar, series'
  'bry_time'
  'idSfwbc(iwest)'
  'nulvar'
  1.0d0

'sfwat_east'
  'surface meltwater thickness eastern boundary condition'
  'meter'
  'sfwat_east, scalar, series'
  'bry_time'
  'idSfwbc(ieast)'
  'nulvar'
  1.0d0

'sfwat_north'
  'surface meltwater thickness northern boundary condition'
  'meter'
  'sfwat_north, scalar, series'
  'bry_time'
  'idSfwbc(inorth)'
  'nulvar'
  1.0d0

'sfwat_south'
  'surface meltwater thickness southern boundary condition'
  'meter'
  'sfwat_south, scalar, series'
  'bry_time'
  'idSfwbc(isouth)'
  'nulvar'
  1.0d0

'sig11_west'
  'ice stress component 11 western boundary condition'
  'N meter-1'
  'sig11_west, scalar, series'
  'bry_time'
  'idS11bc(iwest)'
  'nulvar'
  1.0d0

'sig11_east'
  'ice stress component 11 eastern boundary condition'
  'N meter-1'
  'sig11_east, scalar, series'
  'bry_time'
  'idS11bc(ieast)'
  'nulvar'
  1.0d0

'sig11_north'
  'ice stress component 11 northern boundary condition'
  'N meter-1'
  'sig11_north, scalar, series'
  'bry_time'
  'idS11bc(inorth)'
  'nulvar'
  1.0d0

'sig11_south'
  'ice stress component 22 southern boundary condition'
  'N meter-1'
  'sig11_south, scalar, series'
  'bry_time'
  'idS11bc(isouth)'
  'nulvar'
  1.0d0

'sig22_west'
  'ice stress component 22 western boundary condition'
  'N meter-1'
  'sig22_west, scalar, series'
  'bry_time'
  'idS22bc(iwest)'
  'nulvar'
  1.0d0

'sig22_east'
  'ice stress component 22 eastern boundary condition'
  'N meter-1'
  'sig22_east, scalar, series'
  'bry_time'
  'idS22bc(ieast)'
  'nulvar'
  1.0d0

'sig22_north'
  'ice stress component 22 northern boundary condition'
  'N meter-1'
  'sig22_north, scalar, series'
  'bry_time'
  'idS22bc(inorth)'
  'nulvar'
  1.0d0

'sig22_south'
  'ice stress component 12 southern boundary condition'
  'N meter-1'
  'sig22_south, scalar, series'
  'bry_time'
  'idS22bc(isouth)'
  'nulvar'
  1.0d0

'sig12_west'
  'ice stress component 12 western boundary condition'
  'N meter-1'
  'sig12_west, scalar, series'
  'bry_time'
  'idS12bc(iwest)'
  'nulvar'
  1.0d0

'sig12_east'
  'ice stress component 12 eastern boundary condition'
  'N meter-1'
  'sig12_east, scalar, series'
  'bry_time'
  'idS12bc(ieast)'
  'nulvar'
  1.0d0

'sig12_north'
  'ice stress component 12 northern boundary condition'
  'N meter-1'
  'sig12_north, scalar, series'
  'bry_time'
  'idS12bc(inorth)'
  'nulvar'
  1.0d0

'sig12_south'
  'ice stress component 12 southern boundary condition'
  'N meter-1'
  'sig12_south, scalar, series'
  'bry_time'
  'idS12bc(isouth)'
  'nulvar'
  1.0d0

'uice_west'
  'ice u-momentum western boundary condition'
  'meter second-1'
  'uice_west, scalar, series'
  'bry_time'
  'idUibc(iwest)'
  'nulvar'
  1.0d0

'uice_east'
  'ice u-momentum eastern boundary condition'
  'meter second-1'
  'uice_east, scalar, series'
  'bry_time'
  'idUibc(ieast)'
  'nulvar'
  1.0d0

'uice_north'
  'ice u-momentum northern boundary condition'
  'meter second-1'
  'uice_north, scalar, series'
  'bry_time'
  'idUibc(inorth)'
  'nulvar'
  1.0d0

'uice_south'
  'ice u-momentum southern boundary condition'
  'meter second-1'
  'uice_south, scalar, series'
  'bry_time'
  'idUibc(isouth)'
  'nulvar'
  1.0d0

'vice_west'
  'ice v-momentum western boundary condition'
  'meter second-1'
  'vice_west, scalar, series'
  'bry_time'
  'idVibc(iwest)'
  'nulvar'
  1.0d0

'vice_east'
  'ice v-momentum eastern boundary condition'
  'meter second-1'
  'vice_east, scalar, series'
  'bry_time'
  'idVibc(ieast)'
  'nulvar'
  1.0d0

'vice_north'
  'ice v-momentum northern boundary condition'
  'meter second-1'
  'vice_north, scalar, series'
  'bry_time'
  'idVibc(inorth)'
  'nulvar'
  1.0d0

'vice_south'
  'ice v-momentum southern boundary condition'
  'meter second-1'
  'vice_south, scalar, series'
  'bry_time'
  'idVibc(isouth)'
  'nulvar'
  1.0d0

!
!------------------------------------------------------------------------------
!  Atmospheric forcing variables.
!------------------------------------------------------------------------------
!

'Pair'                                             ! Input
  'surface air pressure'
  'Pascal'                                       ! [ROMS wants millibar]
  'Pair, scalar, series'
  'pair_time'
  'idPair'
  'r2dvar'
  0.01d0

'Tair'                                             ! Input
  'surface air temperature'
  'Celsius'                                        ! [Kelvin]
  'Tair, scalar, series'
  'tair_time'
  'idTair'
  'r2dvar'
  1.0d0

'Qair'                                             ! Input
  'surface air relative humidity'
  'kg/kg'                                          ! [kg/kg]
  'Qair, scalar, series'
  'qair_time'
  'idQair'
  'r2dvar'
  1.00d0                                           ! was percent

'cloud'                                            ! Input
  'cloud fraction'
  'nondimensional'                                 ! [nondimensional]
  'cloud, scalar, series'
  'cloud_time'
  'idCfra'
  'r2dvar'
  1.0d0

'swrad'                                            ! Input/Output
  'solar shortwave radiation flux'
  'watt meter-2'                                   ! Input:  [Watt/m2]
  'shortwave radiation, scalar, series'            ! [Celsius m/s]
  'srf_time'                                       ! Output: [Watt/m2]
  'idSrad'
  'r2dvar'
  1.0d0

'albedo'                                           ! Input/Output
  'albedo'
  'fraction'                                       ! Input: [fraction]
  'albedo, scalar, series'                         ! [Celsius m/s]
  'albedo_time'                                    ! Output: [fraction]
  'idAlbe'
  'r2dvar'
  1.0d0

'atmCO2'                                           ! Input
  'atmCO2'
  'ppmv'                                           ! Input: [ppmv]
  'atmCO2, scalar, series'                         ! [ppmv]
  'atmCO2_time'                                    ! Output: []
  'idAtmCO2'
  'r2dvar'
  1.0d0

'ironsed'                                          ! Input
  'ironsed'
  'mol.m-2.s-1'                                    ! Input: [mol.m-2.s-1]
  'ironsed, scalar, series'                        ! [mol.m-2.s-1]
  'ironsed_time'                                   ! Output: []
  'idIronSed'
  'r2dvar'
  1.0d0

'fecoast'                                          ! Input
  'fecoast'
  'mol Fe m kg-1 s-1'                              ! Input: [mol Fe m kg-1 s-1]
  'fecoast, scalar, series'                        ! [mol Fe m kg-1 s-1]
  'fecoast_time'                                   ! Output: []
  'idFeCoast'
  'r2dvar'
  1.0d0

'solublefe'                                        ! Input
  'solublefe'
  'mol.m-2.s-1'                                    ! Input: [ppmv]
  'soluble_fe, scalar, series'                     ! [ppmv]
  'solublefe_time'                                 ! Output: []
  'idSolubleFe'
  'r2dvar'
  1.0d0

'mineralfe'                                        ! Input
  'mineralfe'
  'g.m-2.s-1'                                      ! Input: [ppmv]
  'mineral_fe, scalar, series'                     ! [ppmv]
  'mineralfe_time'                                 ! Output: []
  'idMineralFe'
  'r2dvar'
  1.0d0

'lwrad_down'                                       ! Input
  'downwelling longwave radiation flux'
  'watt meter-2'                                   ! Input:  [Watt/m2]
  'downwelling longwave radiation, scalar, series' ! [Celsius m/s]
  'lrf_time'
  'idLdwn'
  'r2dvar'
  1.0d0

'lwrad'                                            ! Input/Output
  'net longwave radiation flux'
  'watt meter-2'                                   ! Input:  [Watt/m2]
  'longwave radiation, scalar, series'             ! [Celsius m/s]
  'lrf_time'                                       ! Output: [Watt/m2]
  'idLrad'
  'r2dvar'
  1.0d0

'latent'                                           ! Input/Output
  'net latent heat flux'
  'watt meter-2'                                   ! Input:  [Watt/m2]
  'latent heat flux, scalar, series'               ! [Celsius m/s]
  'lhf_time'                                       ! Output: [Watt/m2]
  'idLhea'
  'r2dvar'
  1.0d0

'sensible'                                         ! Input/Output
  'net sensible heat flux'
  'watt meter-2'                                   ! Input:  [Watt/m2]
  'sensible heat flux, scalar, series'             ! [Celsius m/s]
  'shf_time'                                       ! Output: [Watt/m2]
  'idShea'
  'r2dvar'
  1.0d0

'rain'                                             ! Input
  'rain fall rate'
  'kilogram meter-2 second-1'                      ! [kg m2/s]
  'rain, scalar, series'
  'rain_time'
  'idrain'
  'r2dvar'
  1.0d0                                            ! 1/rhow (0.001 m3/kg) if m/s

'snow'                                             ! Input
  'snow fall rate'
  'kilogram meter-2 second-1'                      ! [kg m2/s]
  'snow, scalar, series'
  'snow_time'
  'idsnow'
  'r2dvar'
  1.0d0                                            ! 1/rhow (0.001 m3/kg) if m/s

'evaporation'                                      ! Input
  'evaporation rate'
  'kilogram meter-2 second-1'                      ! [kg m2/s]
  'evaporation, scalar, series'
  'evap_time'
  'idevap'
  'r2dvar'
  1.0d0                                            ! 1/rhow (0.001 m3/kg) if m/s

'Uwind'                                            ! Input
  'surface u-wind component'
  'meter second-1'                                 ! [m/s]
  'u-wind, scalar, series'
  'wind_time'
  'idUair'
  'r2dvar'
  1.0d0

'Vwind'                                            ! Input
  'surface v-wind component'
  'meter second-1'                                 ! [m/s]
  'v-wind, scalar, series'
  'wind_time'
  'idVair'
  'r2dvar'
  1.0d0

'Uwind_eastward'                                   ! Output
  'eastward surface wind component at RHO-points'
  'meter second-1'                                 ! [m/s]
  'Uwind_eastward, scalar, series'
  'ocean_time'
  'idUairE'
  'r2dvar'
  1.0d0

'Vwind_northward'                                  ! Output
  'northward surface wind component at RHO-points'
  'meter second-1'                                 ! [m/s]
  'Vwind_northward, scalar, series'
  'ocean_time'
  'idVairN'
  'r2dvar'
  1.0d0

'Dwave'                                            ! Input
  'wind-induced wave direction'
  'degrees'                                        ! [radians]
  'Dwave, scalar, series'
  'wave_time'
  'idWdir'
  'r2dvar'
  0.017453292519943295                             ! pi/180

'Hwave'                                            ! Input
  'wind-induced significant wave height'
  'meter'                                          ! [m]
  'Hwave, scalar, series'
  'wave_time'
  'idWamp'
  'r2dvar'
  1.0d0

'Lwave'                                            ! Input
  'wind-induced mean wavelength'
  'meter'                                          ! [m]
  'Lwave, scalar, series'
  'wave_time'
  'idWlen'
  'r2dvar'
  1.0

'Pwave_top'                                        ! Input
  'wind-induced surface wave Period'
  'second'                                         ! [s]
  'Pwave_top, scalar, series'
  'wave_time'
  'idWptp'
  'r2dvar'
  1.0d0

'Pwave_bot'                                        ! Input
  'wind-induced bottom wave Period'
  'second'                                         ! [s]
  'Pwave_bot, scalar, series'
  'wave_time'
  'idWpbt'
  'r2dvar'
  1.0d0

'Ub_swan'                                          ! Input
  'wind-induced bottom orbital velocity'
  'meter second-1'                                 ! [m/s]
  'Ub_swan, scalar, series'
  'wave_time'
  'idWorb'
  'r2dvar'
  1.0d0

'Wave_dissip'                                      ! Input
  'wave dissipation'
  'Watts meter-2'                                  ! [W/m2]
  'Wave_dissip, scalar, series'
  'wave_time'
  'idWdis'
  'r2dvar'
  0.00097561                                       !1/rho0

'Wave_break'                                       ! Input
  'percent wave breaking'
  'nondimensionsal'                                ! []
  'Wave_break, scalar, series'
  'wave_time'
  'idWbrk'
  'r2dvar'
  1.0d0

'Sxx_bar'                                          ! Output
  'vertically-integrated radiation stress, Sxx-component'
  'meter2 second2'                                 ! [s]
  'Sxx, scalar, series'
  'ocean_time'
  'idW2xx'
  'r2dvar'
  1.0d0

'Sxy_bar'                                          ! Output
  'vertically-integrated radiation stress, Sxy-component'
  'meter2 second2'                                 ! [s]
  'Sxy_bar, scalar, series'
  'ocean_time'
  'idW2xy'
  'r2dvar'
  1.0d0

'Syy_bar'                                          ! Output
  'vertically-integrated radiation stress, Syy-component'
  'meter2 second2'                                 ! [s]
  'Syy_bar, scalar, series'
  'ocean_time'
  'idW2yy'
  'r2dvar'
  1.0d0

'Sxx'                                              ! Output
  '3D horizontal radiation stress, Sxx-component'
  'meter2 second2'                                 ! [s]
  'Sxx, scalar, series'
  'ocean_time'
  'idW3xx'
  'r3dvar'
  1.0d0

'Sxy'                                              ! Output
  '3D horizontal radiation stress, Sxy-component'
  'meter2 second2'                                 ! [s]
  'Sxy, scalar, series'
  'ocean_time'
  'idW3xy'
  'r3dvar'
  1.0d0

'Syy'                                              ! Output
  '3D radiation stress, Syy-component'
  'meter2 second2'                                 ! [s]
  'Syy, scalar, series'
  'ocean_time'
  'idW3yy'
  'r3dvar'
  1.0d0

'Szx'                                              ! Output
  '3D vertical radiation stress, Szx-component'
  'meter2 second2'                                 ! [s]
  'Szx, scalar, series'
  'ocean_time'
  'idW3zx'
  'r3dvar'
  1.0d0

'Szy'                                              ! Output
  '3D vertical radiation stress, Szy-component'
  'meter2 second2'                                 ! [s]
  'Szy, scalar, series'
  'ocean_time'
  'idW3zy'
  'r3dvar'
  1.0d0

'ubar_Rstress'                                     ! Output
  'vertically-integrated u-radiation stress'
  'newton meter-2'                                 ! [N/m2]
  'ubar_Rstress, scalar, series'
  'ocean_time'
  'idU2rs'
  'u2dvar'
  1.0d0

'ubar_stokes'                                      ! Output
  'vertically-integrated u-Stokes drift velocity'
  'meter second-1'                                 ! [m/s]
  'ubar_stokes-velocity, scalar, series'
  'ocean_time'
  'idU2Sd'
  'u2dvar'
  1.0d0

'vbar_Rstress'                                      ! Output
  'vertically-integrated v-radiation stress'
  'newton meter-2'                                  ! [N/m2]
  'ubar_Rstress, scalar, series'
  'ocean_time'
  'idV2rs'
  'v2dvar'
  1.0d0

'vbar_stokes'                                      ! Output
  'vertically-integrated v-Stokes drift velocity'
  'meter second-1'                                 ! [m/s]
  'vbar_stokes, scalar, series'
  'ocean_time'
  'idV2Sd'
  'v2dvar'
  1.0d0

'u_Rstress'                                         ! Output
  'u-radiation stress'
  'newton meter-2'                                  ! [N/m2]
  'u_Rstress, scalar, series'
  'ocean_time'
  'idU3rs'
  'u3dvar'
  1.0d0

'u_stokes'                                         ! Output
  'u-Stokes drift velocity'
  'meter second-1'                                 ! [m/s]
  'u_stokes, scalar, series'
  'wave_time'
  'idU3Sd'
  'u3dvar'
  1.0d0

'v_Rstress'                                         ! Output
  'v-radiation stress'
  'newton meter-2'                                  ! [N/m2]
  'v_Rstress, scalar, series'
  'ocean_time'
  'idV3rs'
  'v3dvar'
  1.0d0

'v_stokes'                                         ! Output
  'v-Stokes drift velocity'
  'meter second-1'                                 ! [m/s]
  'v_stokes, scalar, series'
  'ocean_time'
  'idV3Sd'
  'v3dvar'
  1.0d0

!
!------------------------------------------------------------------------------
!  Tidal forcing variables.
!------------------------------------------------------------------------------
!

'tide_period'                                      ! Input
  'tidal period'
  'hours'                                          ! [s]
  'tide_period, scalar, series'
  'tide_period'
  'idTper'
  'nulvar'
  3600.0d0                                         ! 60*60

'tide_Eamp'                                        ! Input
  'tidal elevation amplitude'
  'meter'                                          ! [m]
  'SSH_Tamp, scalar, series'
  'tide_period'
  'idTzam'
  'r2dvar'
  1.0d0

'tide_Ephase'                                      ! Input
  'tidal elevation phase angle'
  'degrees'                                        ! [radians]
  'SSH_Tphase, scalar, series'
  'tide_period'
  'idTzph'
  'r2dvar'
  0.017453292519943295                             ! pi/180

'tide_Cphase'                                      ! Input
  'tidal current phase angle'
  'degrees'                                        ! [radians]
  'tide_Cphase, scalar, series'
  'tide_period'
  'idTvph'
  'r2dvar'
  0.017453292519943295                             ! pi/180

'tide_Cangle'                                      ! Input
  'tidal current inclination angle'
  'degrees'                                        ! [radians]
  'tide_Cangle, scalar, series'
  'tide_period'
  'idTvan'
  'r2dvar'
  0.017453292519943295                             ! pi/180

'tide_Cmax'                                        ! Input
  'maximum tidal current, ellipse major axis'
  'meter second-1'                                 ! [m/s]
  'tide_Cmax, scalar, series'
  'tide_period'
  'idTvma'
  'r2dvar'
  1.0d0

'tide_Cmin'                                        ! Input
  'minimum tidal current, ellipse minor axis'
  'meter second-1'                                 ! [m/s]
  'tide_Cmin, scalar, series'
  'tide_period'
  'idTvmi'
  'r2dvar'
  1.0d0

'tide_Pamp'                                        ! Input
  'tidal potential elevation amplitude'
  'meter'                                          ! [m]
  'SSH_Pamp, scalar, series'
  'tide_period'
  'idTpam'
  'r2dvar'
  1.0d0

'tide_Pphase'                                      ! Input
  'tidal potential elevation phase angle'
  'degrees'                                        ! [radians]
  'SSH_Pphase, scalar, series'
  'tide_period'
  'idTpph'
  'r2dvar'
  0.017453292519943295                             ! pi/180

'tide_m2amp'                                       ! Input
  'tidal velocity amplitude'
  'meter second-1'                                 ! m/s
  'tide_m2amp, scalar'
  'tide_period'
  'idM2am'
  'r2dvar'
  1.0

!
!------------------------------------------------------------------------------
!  River forcing variables.
!------------------------------------------------------------------------------
!

'river_Xposition'                                  ! Input
  'river runoff  XI-positions at RHO-points'
  'nondimensional'                                 ! [nondimensional]
  'river_Xposition, scalar'
  'river'
  'idRxpo'
  'nulvar'
  1.0d0

'river_Eposition'                                  ! Input
  'river runoff ETA-positions at RHO-points'
  'nondimensional'                                 ! [nondimensional]
  'river_Eposition'
  'river'
  'idRepo'
  'nulvar'
  1.0d0

'river_direction'                                  ! Input
  'river runoff direction'
  'nondimensional'                                 ! [nondimensional]
  'river_direction, scalar'
  'river'
  'idRdir'
  'nulvar'
  1.0d0

'river_Vshape'                                     ! Input
  'river runoff mass transport vertical profile'
  'nondimensional'                                 ! [nondimensional]
  'river_Vshape, scalar'
  'river'
  'idRvsh'
  'nulvar'
  1.0d0

'river_transport'                                  ! Input
  'river runoff mass transport'
  'meter3 second-1'                                ! [m3/s]
  'river_transport, scalar, series'
  'river_time'
  'idRtra'
  'nulvar'
  1.0d0

'river_flag'                                       ! Input
  'river runoff flag'
  'nondimensional'                                 ! [nondimensional]
  'river_flag, scalar'
  'river'
  'idRflg'
  'nulvar'
  1.0d0

'river_temp'                                       ! Input
  'river runoff potential temperature'
  'Celsius'                                        ! [Celsius]
  'river_temp, scalar, series'
  'river_time'
  'idRtrc(itemp)'
  'nulvar'
  1.0d0

'river_salt'                                       ! Input
  'river runoff salinity'
  'nondimensional'                                 ! [PSU]
  'river_salt, scalar, series'
  'river_time'
  'idRtrc(isalt)'
  'nulvar'
  1.0d0

'river_dye_'                                       ! Input
  'river runoff dye concentration'
  'kilogram meter-3'                               ! [kg/m3]
  'river_dye, scalar, series'
  'river_time'
  'idRtrc(inert(i))'
  'nulvar'
  1.0d0

'river_mud_'                                       ! Input
  'river runoff suspended sediment concentration'
  'kilogram meter-3'                               ! [kg/m3]
  'river_sediment, scalar, series'
  'river_time'
  'idRtrc(idmud)'
  'nulvar'
  1.0d0

'river_sand_'                                      ! Input
  'river runoff suspended sediment concentration'
  'kilogram meter-3'                               ! [kg/m3]
  'river_sediment, scalar, series'
  'river_time'
  'idRtrc(isand)'
  'nulvar'
  1.0d0

'river_nutrient'                                   ! Input
  'river runoff nutrient'
  'millimole_nitrogen meter-3'                     ! [millimole/m3]
  'river_nutrient, scalar, series'
  'river_time'
  'idRtrc(iNutr)'
  'nulvar'
  1.0d0

!------------------------------------------------------------------------------
! Cobalt river input
!------------------------------------------------------------------------------

'river_ldon'
  'ldon river source'
  'mol.m-2.s-1'
  'river_ldon, scalar, series'
  'runoff_time'
  'idriver_ldon'
  'r2dvar'
  1.0d0

'river_ldop'
  'ldop river source'
  'mol.m-2.s-1'
  'river_ldop, scalar, series'
  'runoff_time'
  'idriver_ldop'
  'r2dvar'
  1.0d0

'river_ndet'
  'ndet river source'
  'mol.m-2.s-1'
  'river_ndet, scalar, series'
  'runoff_time'
  'idriver_ndet'
  'r2dvar'
  1.0d0

'river_no3'
  'no3 river source'
  'mol.m-2.s-1'
  'river_no3, scalar, series'
  'runoff_time'
  'idriver_no3'
  'r2dvar'
  1.0d0

'river_po4'
  'po4 river source'
  'mol.m-2.s-1'
  'river_po4, scalar, series'
  'runoff_time'
  'idriver_po4'
  'r2dvar'
  1.0d0

'river_srdon'
  'srdon river source'
  'mol.m-2.s-1'
  'river_srdon, scalar, series'
  'runoff_time'
  'idriver_srdon'
  'r2dvar'
  1.0d0

'river_srdop'
  'srdop river source'
  'mol.m-2.s-1'
  'river_srdop, scalar, series'
  'runoff_time'
  'idriver_srdop'
  'r2dvar'
  1.0d0

'river_sldon'
  'sldon river source'
  'mol.m-2.s-1'
  'river_sldon, scalar, series'
  'runoff_time'
  'idriver_sldon'
  'r2dvar'
  1.0d0

'river_sldop'
  'sldop river source'
  'mol.m-2.s-1'
  'river_sldop, scalar, series'
  'runoff_time'
  'idriver_sldop'
  'r2dvar'
  1.0d0

'river_fed'
  'fed river source'
  'mol.m-2.s-1'
  'river_fed, scalar, series'
  'runoff_time'
  'idriver_fed'
  'r2dvar'
  1.0d0

!
!------------------------------------------------------------------------------
!  Boundary layer variables.
!------------------------------------------------------------------------------
!

'Hsbl'                                             ! Input/Output
  'depth of oceanic surface boundary layer'
  'meter'                                          ! [m]
  'Hsbl, scalar, series'
  'ocean_time'
  'idHsbl'
  'r2dvar'
  1.0d0

'Hbbl'                                             ! Input/Output
  'depth of oceanic bottom boundary layer'
  'meter'                                          ! [m]
  'Hbbl, scalar, series'
  'ocean_time'
  'idHbbl'
  'r2dvar'
  1.0d0

!
!------------------------------------------------------------------------------
!  Climatotogy variables.
!------------------------------------------------------------------------------
!

'zeta'                                             ! Input
  'sea surface height climatology'
  'meter'                                          ! [m]
  'zeta, scalar, series'
  'ocean_time'
  'idSSHc'
  'r2dvar'
  1.0d0

'ubar'                                             ! Input
  'vertically integrated u-momentum climatology'
  'meter second-1'                                 ! [m/s]
  'ubar-velocity, scalar, series'
  'ocean_time'
  'idUbcl'
  'u2dvar'
  1.0d0

'vbar'                                             ! Input
  'vertically integrated v-momentum climatology'
  'meter second-1'                                 ! [m/s]
  'vbar-velocity, scalar, series'
  'ocean_time'
  'idVbcl'
  'v2dvar'
  1.0d0

'u'                                                ! Input
  'u-momentum component climatology'
  'meter second-1'                                 ! [m/s]
  'u-velocity, scalar, series'
  'ocean_time'
  'idUclm'
  'u3dvar'
  1.0d0

'v'                                                ! Input
  'v-momentum component climatology'
  'meter second-1'                                 ! [m/s]
  'v-velocity, scalar, series'
  'ocean_time'
  'idVclm'
  'v3dvar'
  1.0d0

'omega'
  'S-coordinate vertical momentum climatology'
  'meter3 second-1'
  'omega, scalar, series'
  'ocean_time'
  'idOclm'
  'w3dvar'
  1.0d0

'SSS'                                              ! Input
  'sea surface salinity climatology'
  'nondimensional'                                 ! [PSU]
  'SSS, scalar, series'
  'sss_time'
  'idSSSc'
  'r2dvar'
  1.0d0

'SST'                                              ! Input
  'sea surface temperature climatology'
  'Celsius'                                        ! [Celsius]
  'SST, scalar, series'
  'sst_time'
  'idSSTc'
  'r2dvar'
  1.0d0

'temp'                                             ! Input
  'potential temperature climatology'
  'Celsius'                                        ! [Celsius]
  'temp, scalar, series'
  'ocean_time'
  'idTclm(itemp)'
  'r3dvar'
  1.0d0

'salt'                                             ! Input
  'salinity climatology'
  'nondimensional'                                 ! [PSU]
  'salt, scalar, series'
  'ocean_time'
  'idTclm(isalt)'
  'r3dvar'
  1.0d0

!
!------------------------------------------------------------------------------
!  Adjoint sensitivy variables.  The units below are the same as the state.
!  However, the input functional can have squared, energy, nondimensional,
!  or other units.
!------------------------------------------------------------------------------
!

'zeta'                                             ! Input
  'sea surface height functional'
  'meter'                                          ! [m]
  'zeta, scalar, series'
  'zeta_time'
  'idZads'
  'r2dvar'
  1.0d0

'ubar'                                             ! Input
  'vertically integrated u-momentum functional'
  'meter second-1'                                 ! [m/s]
  'ubar-velocity, scalar, series'
  'v2d_time'
  'idUbas'
  'u2dvar'
  1.0d0

'vbar'                                             ! Input
  'vertically integrated v-momentum functional'
  'meter second-1'                                 ! [m/s]
  'vbar-velocity, scalar, series'
  'v2d_time'
  'idVbas'
  'v2dvar'
  1.0d0

'u'                                                ! Input
  'u-momentum component functional'
  'meter second-1'                                 ! [m/s]
  'u-velocity, scalar, series'
  'v3d_time'
  'idUads'
  'u3dvar'
  1.0d0

'v'                                                ! Input
  'v-momentum component functional'
  'meter second-1'                                 ! [m/s]
  'v-velocity, scalar, series'
  'v3d_time'
  'idVads'
  'v3dvar'
  1.0d0

'temp'                                             ! Input
  'potential temperature functional'
  'Celsius'                                        ! [Celsius]
  'temp_time, scalar, series'
  'temp_time'
  'idTads(itemp)'
  'r3dvar'
  1.0d0

'salt'                                             ! Input
  'salinity functional'
  'nondimensional'                                 ! [PSU]
  'salt_time, scalar, series'
  'salt_time'
  'idTads(isalt)'
  'r3dvar'
  1.0d0

!
!------------------------------------------------------------------------------
!  Tangent linear model impulse forcing variables.
!
!  Notice that additional metadata is need here because with need different
!  indices to avoid conflict with the forward basic state variables. They
!  are used at the same time. The passive tracers (NAT+1:NT) are assigned
!  internally to the same values as the basic state.
!------------------------------------------------------------------------------
!

'zeta'                                             ! Input
  'free-surface impulse forcing'
  'meter'                                          ! [m]
  'zeta, scalar, series'
  'zeta_time'
  'idZtlf'
  'r2dvar'
  1.0d0

'ubar'                                             ! Input
  'vertically integrated u-momentum impulse forcing'
  'meter second-1'                                 ! [m/s]
  'ubar-velocity, scalar, series'
  'v2d_time'
  'idUbtf'
  'u2dvar'
  1.0d0

'vbar'                                             ! Input
  'vertically integrated v-momentum impulse forcing'
  'meter second-1'                                 ! [m/s]
  'vbar-velocity, scalar, series'
  'v2d_time'
  'idVbtf'
  'v2dvar'
  1.0d0

'u'                                                ! Input
  'u-momentum component impulse forcing'
  'meter second-1'                                 ! [m/s]
  'u-velocity, scalar, series'
  'v3d_time'
  'idUtlf'
  'u3dvar'
  1.0d0

'v'                                                ! Input
  'v-momentum component impulse forcing'
  'meter second-1'                                 ! [m/s]
  'v-velocity, scalar, series'
  'v3d_time'
  'idVtlf'
  'v3dvar'
  1.0d0

'temp'                                             ! Input
  'potential temperature impulse forcing'
  'Celsius'                                        ! [Celsius]
  'temp_time, scalar, series'
  'temp_time'
  'idTtlf(itemp)'
  'r3dvar'
  1.0d0

'salt'                                             ! Input
  'salinity functional'
  'nondimensional'                                 ! [PSU]
  'salt_time, scalar, series'
  'salt_time'
  'idTtlf(isalt)'
  'r3dvar'
  1.0d0

!
!------------------------------------------------------------------------------
!  Observation variables: Optimal Interpolation and Nudging.
!------------------------------------------------------------------------------
!

'SSH'                                              ! Input
  'sea surface height observations'
  'meter'                                          ! [m]
  'SSHobs, scalar, series'
  'SSHobs_time'
  'idSSHo'
  'r2dvar'
  1.0d0

'SSH_err'                                          ! Input
  'sea surface height error variance'
  'nondimensional'                                 ! [nondimenisional]
  'SSH_err, scalar, series'
  'SSHobs_time'
  'idSSHe'
  'r2dvar'
  1.0d0

'u'                                                ! Input
  'u-momentum component observations'
  'meter second-1'                                 ! [m/s]
  'Uobs, scalar, series'
  'Vobs_time'
  'idUobs'
  'u3dvar'
  1.0d0

'v'                                                ! Input
  'v-momentum component observations'
  'meter second-1'                                 ! [m/s]
  'Vobs, scalar, series'
  'Vobs_time'
  'idVobs'
  'v3dvar'
  1.0d0

'Evel'                                             ! Input
  'horizontal velocity error variance'
  'nondimensional'                                 ! [nondimensional]
  'Evel, scalar, series'
  'Vobs_time'
  'idUVer'
  'r3dvar'
  1.0d0

'Usur'                                             ! Input
  'surface u-momentum component observations'
  'meter second-1'                                 ! [m/s]
  'Usur, scalar, series'
  'Vsur_time'
  'idUsur'
  'u2dvar'
  1.0d0

'Vsur'                                             ! Input
  'surface v-momentum component observations'
  'meter second-1'                                 ! [m/s]
  'Vsur, scalar, series'
  'Vsur_time'
  'idVsur'
  'v2dvar'
  1.0d0

'Esur'                                             ! Input
  'surface velocity error variance'
  'nondimensional'                                 ! [nondimensional]
  'Esur, scalar, series'
  'Vsur_time'
  'idUVse'
  'r2dvar'
  1.0d0

'SST'                                              ! Input
  'sea surface temperature observations'
  'Celsius'                                        ! [Celsius]
  'SSTobs, scalar, series'
  'SSTobs_time'
  'idSSTo'
  'r2dvar'
  1.0d0

'SST_err'                                          ! Input
  'sea surface temperature error variance'
  'nondimensional'                                 ! [nondimensional]
  'SST_err, scalar, series'
  'SSTobs_time'
  'idSSTe'
  'r2dvar'
  1.0d0

'temp'                                             ! Input
  'potential temperature observations'
  'Celsius'                                        ! [nondimensional]
  'Tobs, scalar, series'
  'Tobs_time'
  'idTobs(itemp)'
  'r3dvar'
  1.0d0

'temp_err'                                         ! Input
  'potential temperature error variance'
  'nondimensional'                                 ! [nondimensional]
  'temp_err, scalar, series'
  'Tobs_time'
  'idTerr(itemp)'
  'r3dvar'
  1.0d0

'salt'                                             ! Input
  'salinity observations'
  'nondimensional'                                 ! [PSU]
  'Sobs, scalar, series'
  'Sobs_time'
  'idTobs(isalt)'
  'r3dvar'
  1.0d0

'salt_err'                                         ! Input
  'salinity error variance'
  'nondimensional'                                 ! [nondimensional]
  'salt_err, scalar, series'
  'Sobs_time'
  'idTerr(isalt)'
  'r3dvar'
  1.0d0

!
!------------------------------------------------------------------------------
!  Inert passive tracer variables.
!------------------------------------------------------------------------------
!
!  Only one entry should be specified here.  This entry contain all the
!  information necessary to process all NPT fields.  The variable name is
!  arbitrary and you may choose any unique name for Vinfo(1) that is not
!  already defined. The identifier for Vinfo(6) must be "idTvar(inert(i))".
!

'dye_'                                             ! Input/Output
  'dye concentration'
  'kilogram meter-3'                               ! [kg/m3]
  'dye_, scalar, series'
  'ocean_time'
  'idTvar(inert(i))'
  'r3dvar'
  1.0d0

'dye_west_'                                        ! Input
  'dye concentration western boundary condition'
  'kilogram meter-3'                               ! [kg/m3]
  'dye_west_, scalar, series'
  'dye_time'
  'idTbry(iwest,inert(i))'
  'nulvar'
  1.0d0

'dye_east_'                                        ! Input
  'dye concentration eastern boundary condition'
  'kilogram meter-3'                               ! [kg/m3]
  'dye_east_, scalar, series'
  'dye_time'
  'idTbry(ieast,inert(i))'
  'nulvar'
  1.0d0

'dye_south_'                                       ! Input
  'dye concentration southern boundary condition'
  'kilogram meter-3'                               ! [kg/m3]
  'dye_south_, scalar, series'
  'dye_time'
  'idTbry(isouth,inert(i))'
  'nulvar'
  1.0d0

'dye_north_'                                       ! Input
  'dye concentration northern boundary condition'
  'kilogram meter-3'                               ! [kg/m3]
  'dye_north_, scalar, series'
  'dye_time'
  'idTbry(inorth,inert(i))'
  'nulvar'
  1.0d0

!
!------------------------------------------------------------------------------
!  Sediment variables:  The actual variable name for some of the sediment
!                       tracers are set-up internally in "mod_ncparam.F".
!  It depends on the mumber of cohesive and noncohesive sediment tracers
!  for a particular application. For example if you have 1 cohesive and
!  2 noncohesive sediment classes, the variable names are:
!
!    "mud_"          becomes   "mud_01"
!    "mud_west_"     becomes   "mud_west_01"
!    "mud_east_"     becomes   "mud_east_01"
!    "mud_south_"    becomes   "mud_south_01"
!    "mud_north_"    becomes   "mud_north_01"
!
!    "sand_"         becomes   "sand_01",       "sand_02"
!    "sand_west"     becomes   "sand_west_01",  "sand_west_02"
!    "sand_east"     becomes   "sand_east_01",  "sand_east_02"
!    "sand_south"    becomes   "sand_south_01", "sand_south_02"
!    "sand_north"    becomes   "sand_north_01", "sand_north_02"
!------------------------------------------------------------------------------
!

'mud_'                                             ! Input/Output
  'suspended cohesive sediment'
  'kilogram meter-3'                               ! [kg/m3]
  'mud_, scalar, series'
  'ocean_time'
  'idTvar(idmud(i))'
  'r3dvar'
  1.0d0

'mud_west_'                                        ! Input
  'suspended cohesive sediment western boundary condition'
  'kilogram meter-3'                               ! [kg/m3]
  'mud_west_, scalar, series'
  'mud_time'
  'idTbry(iwest,idmud(i))'
  'r3dvar'
  1.0d0

'mud_east_'                                        ! Input
  'suspended cohesive sediment eastern boundary condition'
  'kilogram meter-3'                               ! [kg/m3]
  'mud_east_, scalar, series'
  'mud_time'
  'idTbry(ieast,idmud(i))'
  'nulvar'
  1.0d0

'mud_south_'                                       ! Input
  'suspended cohesive sediment southern boundary condition'
  'kilogram meter-3'                               ! [kg/m3]
  'mud_south_, scalar, series'
[...]
  1.0d0

'_sdiff'                                           ! Input/Output
  'horizontal S-diffusion rotated tensor term'
  'second-1'                                       ! [1/s T]
  '_sdiff, scalar, series'
  'ocean_time'
  'idDtrc(iTsdif)'
  'r3dvar'
  1.0d0

'_vdiff'                                           ! Input/Output
  'vertical diffusion term'
  'second-1'
  '_vdiff, scalar, series'
  'ocean_time'
  'idDtrc(iTvdif)'
  'r3dvar'
  1.0d0

!
!-----------------------------------------------------------------------
!  Forward trajectory variables for tangent linear and adjoint models.
!-----------------------------------------------------------------------
!

'rzeta'                                            ! Input/Output
  'RHS of free-surface equation'
  'meter3 second-1'                                ! [m3/s]
  'rzeta, scalar, series'
  'ocean_time'
  'idRzet'
  'r2dvar'
  1.0d0

'rubar'                                            ! Input/Output
  'RHS of vertically integrated u-momentum'
  'meter4 second-2'                                ! [m4/s2]
  'rubar, scalar, series'
  'ocean_time'
  'idRu2d'
  'u2dvar'
  1.0d0

'rvbar'                                            ! Input/Output
  'RHS of vertically integrated v-momentum'
  'meter4 second-2'                                ! [m4/s2]
  'rvbar, scalar, series'
  'ocean_time'
  'idRv2d'
  'v2dvar'
  1.0d0

'rufrc'                                            ! Input/Output
  'RHS of vertically integrated u-coupling terms'
  'meter4 second-2'                                ! [m4/s2]
  'rufrc, scalar, series'
  'ocean_time'
  'idRuct'
  'u2dvar'
  1.0d0

'rvfrc'                                            ! Input/Output
  'RHS of vertically integrated v-coupling terms'
  'meter4 second-2'                                ! [m4/s2]
  'rvfrc, scalar, series'
  'ocean_time'
  'idRvct'
  'v2dvar'
  1.0d0

'DU_avg1'                                          ! Input/Output
  'time averaged u-flux for 2D equations'
  'meter3 second-1'                                ! [m3/s]
  'DU_avg1, scalar, series'
  'ocean_time'
  'idUfx1'
  'u2dvar'
  1.0d0

'DU_avg2'                                          ! Input/Output
  'time averaged u-flux for 3D equations coupling'
  'meter3 second-1'                                ! [m3/s]
  'DU_avg2, scalar, series'
  'ocean_time'
  'idUfx2'
  'u2dvar'
  1.0d0

'DV_avg1'                                          ! Input/Output
  'time averaged v-flux for 2D equations'
  'meter3 second-1'                                ! [m3/s]
  'DV_avg1, scalar, series'
  'ocean_time'
  'idVfx1'
  'v2dvar'
  1.0d0

'DV_avg2'                                          ! Input/Output
  'time averaged v-flux for 3D equations coupling'
  'meter3 second-1'                                ! [m3/s]
  'DV_avg2, scalar, series'
  'ocean_time'
  'idVfx2'
  'v2dvar'
  1.0d0

'ru'                                               ! Input/Output
  'RHS of total u-momentum'
  'meter4 second-2'                                ! [m4/s2]
  'ru, scalar, series'
  'ocean_time'
  'idRu3d'
  'u3dvar'
  1.0d0

'rv'                                               ! Input/Output
  'RHS of total v-momentum'
  'meter4 second-2'                                ! [m4/s2]
  'rv, scalar, series'
  'ocean_time'
  'idRv3d'
  'v3dvar'
  1.0d0

!
!-----------------------------------------------------------------------
!  Varational data assimilation variables.
!-----------------------------------------------------------------------
!

'Nobs'                                             ! Input
  'number of observations per survey time'
  'nondimensional'                                 ! [nondimensional]
  'nulvar'
  'nulvar'
  'idNobs'
  'nulvar'
  1.0d0

'survey_time'                                      ! Input
  'observations survey time'
  'day'                                            ! [day]
  'nulvar'
  'nulvar'
  'idOday'
  'nulvar'
  1.0d0

'obs_type'                                         ! Input
  'associated model state variable type'
  'nondimensional'                                 ! [nondimensional]
  'nulvar'
  'datum'
  'idOtyp'
  'nulvar'
  1.0d0

'obs_time'                                         ! Input
  'time of observation'
  'day'                                            ! [day]
  'nulvar'
  'datum'
  'idObsT'
  'nulvar'
  1.0d0

'obs_depth'                                        ! Input/Output
  'depth of observation'
  'meter'                                          ! [m]
  'nulvar'
  'datum'
  'idObsD'
  'nulvar'
  1.0d0

'obs_Xgrid'                                        ! Input
  'x-grid observation location'
  'nondimensional'                                 ! [nondimensional]
  'nulvar'
  'datum'
  'idObsX'
  'nulvar'
  1.0d0

'obs_Ygrid'                                        ! Input
  'y-grid observation location'
  'nondimensional'                                 ! [nondimensional]
  'nulvar'
  'datum'
  'idObsY'
  'nulvar'
  1.0d0

'obs_Zgrid'                                        ! Input/Output
  'z-grid observation location'
  'nondimensional'                                 ! [nondimensional]
  'nulvar'
  'datum'
  'idObsZ'
  'nulvar'
  1.0d0

'obs_value'                                        ! Input
  'observation value'
  'state variable units'                           ! [state units]
  'nulvar'
  'datum'
  'idOval'
  'nulvar'
  1.0d0

'obs_variance'                                     ! Input
  'observation global variance'
  'squared state variable units'                   ! [squared state units]
  'nulvar'
  'datum'
  'idOvar'
  'nulvar'
  1.0d0

'obs_error'                                        ! Input
  'observation error, assigned weight'
  'inverse squared state variable units'           ! [1/(squared state units)]
  'nulvar'
  'datum'
  'idOerr'
  'nulvar'
  1.0d0

'obs_scale'                                        ! Output
  'observation screening/normalization scale'
  'nondimensional'
  'nulvar'
  'datum'
  'idObsS'
  'nulvar'
  1.0d0

'Kh'                                               ! Input
  'convolution horizontal diffusion coefficient'
  'meter2 second-1'                                ! [m2/s]
  'Kh, scalar, series'
  'ocean_time'
  'idKhor'
  'r2dvar'
  1.0d0

'Kv'                                               ! Input
  'convolution vertical diffusion coefficient'
  'meter2 second-1'                                ! [m2/s]
  'Kv, scalar, series'
  'ocean_time'
  'idKver'
  'w3dvar'
  1.0d0

'NLmodel_initial'                                  ! Output
  'initial nonlinear model at observation locations'
  'nulvar'
  'nulvar'
  'datum'
  'idNLmi'
  'nulvar'
  1.0d0

'NLmodel_value'                                    ! Output
  'nonlinear model at observation locations'
  'nulvar'
  'nulvar'
  'datum'
  'idNLmo'
  'nulvar'
  1.0d0

'TLmodel_value'                                    ! Output
  'tangent linear model at observation locations'
  'nulvar'
  'nulvar'
  'datum'
  'idTLmo'
  'nulvar'
  1.0d0

'misfit_initial'                                   ! Output
  'initial model-observation misfit'
  'nulvar'
  'nulvar'
  'datum'
  'idMOMi'
  'nulvar'
  1.0d0

'misfit_final'                                     ! Output
  'final model-observation misfit'
  'nulvar'
  'nulvar'
  'datum'
  'idMOMf'
  'nulvar'
  1.0d0

!-------------------------------------------------------------
! Cobalt variables here again ?
! BEST_NPZ variables
!-------------------------------------------------------------


!ICE_BIO
'ice_thick'
  'ice thickness climatology'
  'meters'
  'ice_thick, scalar, series'
  'ocean_time'
  'idTclm(i1CI)'
  'r2dvar'
  1.0d0

!3DAKT
'AKt'
  'AKt from 3D run'
  'meter2 second-1 '
  'Akt, scalar, series'
  'ocean_time'
  'idTclm(iAKt3)'
  'r2dvar'
  1.0d0


!------------------------------------------------------------
 'Jel'
  'Jellyfish concentration'
  'milligram carbon meter-3'
  'jellyfish, scalar, series'
  'bio_time'
  'idTvar(iJel)'
  'r3dvar'
  1.0d0


'jel_west'
  'jellyfish western boundary condition'
  'mg C per m3'
  'jel_west, scalar, series'
  'bio_time'
  'idTbry(iwest,iJel)'
  'nulvar'
  1.0d0

'jel_east'
  'jellyfish eastern boundary condition'
  'mg C per m3'
  'jel_east, scalar, series'
  'bio_time'
  'idTbry(ieast,iJel)'
  'nulvar'
  1.0d0

'jel_south'
  'jellyfish southern boundary condition'
  'mg C per m3'
  'jel_south, scalar, series'
  'bio_time'
  'idTbry(isouth,iJel)'
  'nulvar'
  1.0d0

'jel_north'
  'jellyfish northern boundary condition'
  'mg C per m3'
  'jel_north, scalar, series'
  'bio_time'
  'idTbry(inorth,iJel)'
  'nulvar'
  1.0d0

!------------------------------------------------------------
!BENTHIC
!--------------------
!'Ben'
!  'benthos concentration'
!  'milligram carbon meter-2'
!  'benthos, scalar, series'
!  'bio_time'
!  'idBvar(iBen)'
!  'r3dvar'
!  1.0d0

!'DetBen'
!  'benthic detritus concentration'
!  'milligram carbon meter-2'
!  'benthic detritus, scalar, series'
!  'bio_time'
!  'idBvar(iBenDet)'
!  'r3dvar'
!  1.0d0

!!RD : sedidemnt var for cobalt
'cased'
  'Sediment CaCO3'
  'mol.m-3'
  'cased, scalar, series'
  'ocean_time'
  'idBeTvar(icased)'
  'r2dvar'
  1.0d0

'cadet_arag_btf'
  'aragonite flux to Sediments'
  'mol m-2 s-1'
  'cadet_arag_btf, scalar, series'
  'ocean_time'
  'idBeTvar(icadet_arag_btf)'
  'r2dvar'
  1.0d0

'cadet_calc_btf'
  'calcite flux to Sediments'
  'mol m-2 s-1'
  'cadet_calc_btf, scalar, series'
  'ocean_time'
  'idBeTvar(icadet_calc_btf)'
  'r2dvar'
  1.0d0

'ndet_btf'
  'N flux to Sediments'
  'mol m-2 s-1'
  'ndet_btf, scalar, series'
  'ocean_time'
  'idBeTvar(indet_btf)'
  'r2dvar'
  1.0d0

'pdet_btf'
  'P flux to Sediments'
  'mol m-2 s-1'
  'pdet_btf, scalar, series'
  'ocean_time'
  'idBeTvar(ipdet_btf)'
  'r2dvar'
  1.0d0

'sidet_btf'
  'SiO2 flux to Sediments'
  'mol m-2 s-1'
  'sidet_btf, scalar, series'
  'ocean_time'
  'idBeTvar(isidet_btf)'
  'r2dvar'
  1.0d0


!-------
!ICE_BIO
!-------
'IcePhL'
  'Ice algae concentration'
  'milligram carbon meter-3'
  'Ice algae, scalar, series'
  'bio_time'
  'idIcePhL'
  'r2dvar'
  1.0d0

'Ice Algae_west'
  'Ice algae concentration western boundary condition'
  'meter'
  'snow_thick_west, scalar, series'
  'bry_time'
  'idIcePhLbc(iwest)'
  'nulvar'
  1.0d0

'Ice Algae_east'
  'Ice algae concentration eastern boundary condition'
  'meter'
  'snow_thick_east, scalar, series'
  'bry_time'
  'idIcePhLbc(ieast)'
  'nulvar'
  1.0d0

'Ice Algae_north'
  'Ice algae concentration northern boundary condition'
  'meter'
  'snow_thick_north, scalar, series'
  'bry_time'
  'idIcePhLbc(inorth)'
  'nulvar'
  1.0d0

'Ice Algae_south'
  'Ice algae concentration southern boundary condition'
  'meter'
  'snow_thick_south, scalar, series'
  'bry_time'
  'idIcePhLbc(isouth)'
  'nulvar'
  1.0d0

'IceNO3'
  'Ice nitrate concentration'
  'mgC/m3'
  'Ice nitrate, scalar, series'
  'ocean_time'
  'idIceNO3'
  'r2dvar'
  1.0d0

'Ice_Nitrate_west'
  'Ice nitrate concentration western boundary condition'
  'meter'
  'ice_nitrate_conc_west, scalar, series'
  'bry_time'
  'idIceNO3bc(iwest)'
  'nulvar'
  1.0d0

'Ice_Nitrate_east'
  'Ice nitrate concentration eastern boundary condition'
  'meter'
  'ice_nitrate_conc_east, scalar, series'
  'bry_time'
  'idIceNO3bc(ieast)'
  'nulvar'
  1.0d0

'Ice_Nitrate_north'
  'Ice nitrate concentration northern boundary condition'
  'meter'
  'ice_nitrate_conc_north, scalar, series'
  'bry_time'
  'idIceNO3bc(inorth)'
  'nulvar'
  1.0d0

'Ice_Nitrate_south'
  'Ice nitrate concentration southern boundary condition'
  'meter'
  'ice_nitrate_conc_south, scalar, series'
  'bry_time'
  'idIceNO3bc(isouth)'
  'nulvar'
  1.0d0

'IceNH4'
  'Ice ammonium concentration'
  'mgC/m3'
  'Ice ammonium, scalar, series'
  'ocean_time'
  'idIceNH4'
  'r2dvar'
  1.0d0

'Ice_Ammonium_west'
  'Ice Ammonium concentration western boundary condition'
  'meter'
  'ice_Ammonium_conc_west, scalar, series'
  'bry_time'
  'idIceNH4bc(iwest)'
  'nulvar'
  1.0d0

'Ice_Ammonium_east'
  'Ice Ammonium concentration eastern boundary condition'
  'meter'
  'ice_Ammonium_conc_east, scalar, series'
  'bry_time'
  'idIceNH4bc(ieast)'
  'nulvar'
  1.0d0

'Ice_Ammonium_north'
  'Ice Ammonium concentration northern boundary condition'
  'meter'
  'ice_Ammonium_conc_north, scalar, series'
  'bry_time'
  'idIceNH4bc(inorth)'
  'nulvar'
  1.0d0

'Ice_Ammonium_south'
  'Ice Ammonium concentration southern boundary condition'
  'meter'
  'ice_Ammonium_conc_south, scalar, series'
  'bry_time'
  'idIceNH4bc(isouth)'
  'nulvar'
  1.0d0

'IceZ'
  'Ice Thickness'
  'meters'
  'Ice thickness, series'
  'bio_time'
  'idIceBvar(iIceZ)'
  'r2dvar'
  1.0d0

'IceLog'
  'Logical Ice Counter'
  'unitless'
  'Logical Ice Counter, scalar, series'
  'bio_time'
  'idIceLog'
  'r2dvar'
  1.0d0

!------------------------------------------------------------
!STATIONARY
!-----------------------
'Stat1_3d'
  '1st 3D stationary variable'
  'milligram carbon meter-3 d-1'
  'StatVar scalar series'
  'bio_time'
  'idTSvar(i3Stat1)'
  'r3dvar'
  1.0d0

'Stat2_3d'
  '2nd 3D stationary variable'
  'milligram carbon meter-3 d-1'
  'StatVar scalar series'
  'bio_time'
  'idTSvar(i3Stat2)'
  'r3dvar'
  1.0d0

'Stat3_3d'
  '3rd 3D stationary variable'
  'milligram carbon meter-3 d-1'
  'StatVar scalar series'
  'bio_time'
  'idTSvar(i3Stat3)'
  'r3dvar'
  1.0d0

'Stat4_3d'
  '4th 3D stationary variable'
  'milligram carbon meter-3 d-1'
  'StatVar scalar series'
  'bio_time'
  'idTSvar(i3Stat4)'
  'r3dvar'
  1.0d0

'Stat5_3d'
  '5th 3D stationary variable'
  'milligram carbon meter-3 d-1'
  'StatVar scalar series'
  'bio_time'
  'idTSvar(i3Stat5)'
  'r3dvar'
  1.0d0

'Stat6_3d'
  '6th 3D stationary variable'
  'milligram carbon meter-3 d-1'
  'StatVar scalar series'
  'bio_time'
  'idTSvar(i3Stat6)'
  'r3dvar'
  1.0d0

'Stat7_3d'
  '7th 3D stationary variable'
  'milligram carbon meter-3 d-1'
  'StatVar scalar series'
  'bio_time'
  'idTSvar(i3Stat7)'
  'r3dvar'
  1.0d0

'Stat8_3d'
  '8th 3D stationary variable'
  'milligram carbon meter-3 d-1'
  'StatVar scalar series'
  'bio_time'
  'idTSvar(i3Stat8)'
  'r3dvar'
  1.0d0


'Stat9_3d'
  '9th 3D stationary variable'
  'milligram carbon meter-3 d-1'
  'StatVar scalar series'
  'bio_time'
  'idTSvar(i3Stat9)'
  'r3dvar'
  1.0d0


'Stat10_3d'
  '10th 3D stationary variable'
  'milligram carbon meter-3 d-1'
  'StatVar scalar series'
  'bio_time'
  'idTSvar(i3Stat10)'
  'r3dvar'
  1.0d0


'Stat11_3d'
  '11th 3D stationary variable'
  'milligram carbon meter-3 d-1'
  'StatVar scalar series'
  'bio_time'
  'idTSvar(i3Stat11)'
  'r3dvar'
  1.0d0

'Stat12_3d'
  '12th 3D stationary variable'
  'milligram carbon meter-3 d-1'
  'StatVar scalar series'
  'bio_time'
  'idTSvar(i3Stat12)'
  'r3dvar'
  1.0d0

'Stat13_3d'
  '13th 3D stationary variable'
  'milligram carbon meter-3 d-1'
  'StatVar scalar series'
  'bio_time'
  'idTSvar(i3Stat13)'
  'r3dvar'
  1.0d0

'Stat14_3d'
  '14th 3D stationary variable'
  'milligram carbon meter-3 d-1'
  'StatVar scalar series'
  'bio_time'
  'idTSvar(i3Stat14)'
  'r3dvar'
  1.0d0

'Stat15_3d'
  '15th 3D stationary variable'
  'milligram carbon meter-3 d-1'
  'StatVar scalar series'
  'bio_time'
  'idTSvar(i3Stat15)'
  'r3dvar'
  1.0d0

'Stat16_3d'
  '16th 3D stationary variable'
  'milligram carbon meter-3 d-1'
  'StatVar scalar series'
  'bio_time'
  'idTSvar(i3Stat16)'
  'r3dvar'
  1.0d0
!-----------------------------
!PROD3
!---------------------------
'prod_PhS'
  'primary production small phytoplankton'
  'milligram carbon meter-3 d-1'
  'PrimProd scalar series'
  'bio_time'
  'idPT3var(iPhSprd)'
  'r3dvar'
  1.0d0

'prod_PhL'
  'primary production large phytoplankton'
  'milligram carbon meter-3 d-1'
  'PrimProd scalar series'
  'bio_time'
  'idPT3var(iPhLprd)'
  'r3dvar'
  1.0d0

'prod_MZS'
  'secondary production small microzooplankton'
  'milligram carbon meter-3 d-1'
  'PrimProd scalar series'
  'bio_time'
  'idPT3var(iMZSprd)'
  'r3dvar'
  1.0d0

'prod_MZL'
  'secondary production large microzooplankton'
  'milligram carbon meter-3 d-1'
  'PrimProd scalar series'
  'bio_time'
  'idPT3var(iMZLprd)'
  'r3dvar'
  1.0d0

'prod_Cop'
  'secondary production copepods'
  'milligram carbon meter-3 d-1'
  'PrimProd scalar series'
  'bio_time'
  'idPT3var(iCopPrd)'
  'r3dvar'
  1.0d0

'prod_NCa'
  'secondary production Neocalanus'
  'milligram carbon meter-3 d-1'
  'PrimProd scalar series'
  'bio_time'
  'idPT3var(iNCaPrd)'
  'r3dvar'
  1.0d0

'prod_Eup'
  'secondary production Euphausiids'
  'milligram carbon meter-3 d-1'
  'PrimProd scalar series'
  'bio_time'
  'idPT3var(iEupPrd)'
  'r3dvar'
  1.0d0

'prod_Jel'
  'secondary production Jellyfish'
  'milligram carbon meter-3 d-1'
  'PrimProd scalar series'
  'bio_time'
  'idPT3var(iJelPrd)'
  'r3dvar'
  1.0d0

!----------------------------
! PROD2
!----------------------------
'prod_Ben'
  'secondary production Benthos'
  'milligram carbon meter-3 d-1'
  'PrimProd scalar series'
  'bio_time'
  'idPT2var(iBenPrd)'
  'r2dvar'
  1.0d0

'prod_IcePhL'
  'primary production ice algae'
  'milligram carbon meter-3 d-1'
  'PrimProd scalar series'
  'bio_time'
  'idPT2var(iIAPrd)'
  'r2dvar'
  1.0d0

'prod_X'
  'temporary production array'
  'milligram carbon meter-3 d-1'
  'PrimProd scalar series'
  'bio_time'
  'idPT2var(iXPrd)'
  'r2dvar'
  1.0d0

!----------------------------
! BIOFLUX
!----------------------------
'bioflux'
  '2d bioflux variable'
  'flux mmol'
  'BioFlx scalar series'
  'bio_time'
  'idTBFvar(iBF)'
  'r2dvar'
  1.0d0

!------------------------------------------------------------
!STATIONARY2
!-----------------------
'Stat1_2d'
  '1st 2D stationary variable'
  'milligram carbon meter-3 d-1'
  'StatVar scalar series'
  'bio_time'
  'idTS2var(i2Stat1)'
  'r2dvar'
  1.0d0

'Stat2_2d'
  '2nd 2D stationary variable'
  'milligram carbon meter-3 d-1'
  'StatVar scalar series'
  'bio_time'
  'idTS2var(i2Stat2)'
  'r2dvar'
  1.0d0

'Stat3_2d'
  '3rd 2D stationary variable'
  'milligram carbon meter-3 d-1'
  'StatVar scalar series'
  'bio_time'
  'idTS2var(i2Stat3)'
  'r2dvar'
  1.0d0

'Stat4_2d'
  '4th 2D stationary variable'
  'milligram carbon meter-3 d-1'
  'StatVar scalar series'
  'bio_time'
  'idTS2var(i2Stat4)'
  'r2dvar'
  1.0d0

'Stat5_2d'
  '5th 2D stationary variable'
  'milligram carbon meter-3 d-1'
  'StatVar scalar series'
  'bio_time'
  'idTS2var(i2Stat5)'
  'r2dvar'
  1.0d0

'Stat6_2d'
  '6th 2D stationary variable'
  'milligram carbon meter-3 d-1'
  'StatVar scalar series'
  'bio_time'
  'idTS2var(i2Stat6)'
  'r2dvar'
  1.0d0

'Stat7_2d'
  '7th 2D stationary variable'
  'milligram carbon meter-3 d-1'
  'StatVar scalar series'
  'bio_time'
  'idTS2var(i2Stat7)'
  'r2dvar'
  1.0d0

'Stat8_2d'
  '8th 2D stationary variable'
  'milligram carbon meter-3 d-1'
  'StatVar scalar series'
  'bio_time'
  'idTS2var(i2Stat8)'
  'r2dvar'
  1.0d0

!
!------------------------------------------------------------------------------
!  Nudging to climatology time scales. We can have a generic variable for all
!  tracer nudging time scales or individual variables for each active and
!  passive tracer. The metadata for the individual variables is set internally
!  in "mod_ncparam".
!------------------------------------------------------------------------------
!

'M2_NudgeCoef'                                     ! Input
  '2D momentum inverse nudging coefficients'
  'day-1'                                          ! [1/s]
  'M2_NudgeCoef, scalar'
  'nulvar'
  'idM2nc'
  'r2dvar'
  1.0

'M3_NudgeCoef'                                     ! Input
  '3D momentum inverse nudging coefficients'
  'day-1'                                          ! [1/s]
  'M3_NudgeCoef, scalar'
  'nulvar'
  'idM3nc'
  'r3dvar'
  1.0

'tracer_NudgeCoef'                                 ! Input
  'generic tracer inverse nudging coefficients'
  'day-1'                                          ! [1/s]
  'tracer_NudgeCoef, scalar'
  'nulvar'
  'idgTnc'
  'r3dvar'
  1.0


