ROMS/TOMS Framework: September 24, 2009
===================

Copyright (c) 2002-2009 The ROMS/TOMS Group
  Licensed under a MIT/X style license
  See License_ROMS.txt

svn: $HeadURL: https://www.myroms.org/svn/omlab/branches/kate/trunk/ROMS/Version $
svn: $LastChangedBy: kate $
svn: $LastChangedRevision: 1076 $
svn: $LastChangedDate: 2009-09-25 15:18:43 -0800 (Fri, 25 Sep 2009) $
svn: $Id: Version 1076 2009-09-25 23:18:43Z kate $
