ROMS/TOMS Framework: April 17, 2009
===================

Copyright (c) 2002-2009 The ROMS/TOMS Group
  Licensed under a MIT/X style license
  See License_ROMS.txt

svn: $HeadURL: https://www.myroms.org/svn/omlab/branches/kate/trunk/ROMS/Version $
svn: $LastChangedBy: kate $
svn: $LastChangedRevision: 976 $
svn: $LastChangedDate: 2009-05-18 13:57:59 -0800 (Mon, 18 May 2009) $
svn: $Id: Version 976 2009-05-18 21:57:59Z kate $
