ROMS/TOMS Framework: June 16, 2009
===================

Copyright (c) 2002-2009 The ROMS/TOMS Group
  Licensed under a MIT/X style license
  See License_ROMS.txt

svn: $HeadURL: https://www.myroms.org/svn/omlab/branches/kate/trunk/ROMS/Version $
svn: $LastChangedBy: kate $
svn: $LastChangedRevision: 1003 $
svn: $LastChangedDate: 2009-06-19 15:52:29 -0800 (Fri, 19 Jun 2009) $
svn: $Id: Version 1003 2009-06-19 23:52:29Z kate $
