ROMS/TOMS Framework:  July 7, 2009
===================

Copyright (c) 2002-2009 The ROMS/TOMS Group
  Licensed under a MIT/X style license
  See License_ROMS.txt

svn: $HeadURL: https://www.myroms.org/svn/omlab/branches/kate/trunk/ROMS/Version $
svn: $LastChangedBy: kate $
svn: $LastChangedRevision: 1015 $
svn: $LastChangedDate: 2009-07-07 13:49:20 -0800 (Tue, 07 Jul 2009) $
svn: $Id: Version 1015 2009-07-07 21:49:20Z kate $
