ROMS/TOMS Framework: September 7, 2009
===================

Copyright (c) 2002-2009 The ROMS/TOMS Group
  Licensed under a MIT/X style license
  See License_ROMS.txt

svn: $HeadURL: https://www.myroms.org/svn/omlab/branches/kate/trunk/ROMS/Version $
svn: $LastChangedBy: kate $
svn: $LastChangedRevision: 1057 $
svn: $LastChangedDate: 2009-09-08 11:01:19 -0800 (Tue, 08 Sep 2009) $
svn: $Id: Version 1057 2009-09-08 19:01:19Z kate $
