ROMS/TOMS Framework: July 16, 2009
===================

Copyright (c) 2002-2009 The ROMS/TOMS Group
  Licensed under a MIT/X style license
  See License_ROMS.txt

svn: $HeadURL: https://www.myroms.org/svn/omlab/branches/kate/trunk/ROMS/Version $
svn: $LastChangedBy: kate $
svn: $LastChangedRevision: 1022 $
svn: $LastChangedDate: 2009-07-16 14:34:52 -0800 (Thu, 16 Jul 2009) $
svn: $Id: Version 1022 2009-07-16 22:34:52Z kate $
