ROMS/TOMS Framework: October 16, 2009
===================

Copyright (c) 2002-2009 The ROMS/TOMS Group
  Licensed under a MIT/X style license
  See License_ROMS.txt

svn: $HeadURL: https://www.myroms.org/svn/omlab/branches/kate/trunk/ROMS/Version $
svn: $LastChangedBy: kate $
svn: $LastChangedRevision: 1087 $
svn: $LastChangedDate: 2009-10-20 16:21:28 -0800 (Tue, 20 Oct 2009) $
svn: $Id: Version 1087 2009-10-21 00:21:28Z kate $
