<<<<<<< HEAD
ROMS/TOMS Framework: September 11, 2015
=======
ROMS/TOMS Framework: August 4, 2015
>>>>>>> 753604e... src:ticket:677
===================

Copyright (c) 2002-2016 The ROMS/TOMS Group
  Licensed under a MIT/X style license
  See License_ROMS.txt

svn: $HeadURL: https://www.myroms.org/svn/omlab/branches/kate/trunk/ROMS/Version $
svn: $LastChangedBy$
svn: $LastChangedRevision$
svn: $LastChangedDate$
