ROMS/TOMS Framework: February 1, 2011
===================

Copyright (c) 2002-2011 The ROMS/TOMS Group
  Licensed under a MIT/X style license
  See License_ROMS.txt

svn: $HeadURL$
svn: $LastChangedBy$
svn: $LastChangedRevision$
svn: $LastChangedDate$
svn: $Id$
