ROMS/TOMS Framework:  August 11, 2009
===================

Copyright (c) 2002-2009 The ROMS/TOMS Group
  Licensed under a MIT/X style license
  See License_ROMS.txt

svn: $HeadURL: https://www.myroms.org/svn/omlab/branches/kate/trunk/ROMS/Version $
svn: $LastChangedBy: kate $
svn: $LastChangedRevision: 1039 $
svn: $LastChangedDate: 2009-08-11 14:52:28 -0800 (Tue, 11 Aug 2009) $
svn: $Id: Version 1039 2009-08-11 22:52:28Z kate $
