ROMS/TOMS Framework: March 26, 2009
===================

Copyright (c) 2002-2009 The ROMS/TOMS Group
  Licensed under a MIT/X style license
  See License_ROMS.txt

svn: $HeadURL: https://www.myroms.org/svn/omlab/branches/kate/trunk/ROMS/Version $
svn: $LastChangedBy: kate $
svn: $LastChangedRevision: 975 $
svn: $LastChangedDate: 2009-05-05 14:51:13 -0800 (Tue, 05 May 2009) $
svn: $Id: Version 975 2009-05-05 22:51:13Z kate $
