ROMS/TOMS Framework: December 15, 2009
===================

Copyright (c) 2002-2009 The ROMS/TOMS Group
  Licensed under a MIT/X style license
  See License_ROMS.txt

svn: $HeadURL: https://www.myroms.org/svn/omlab/branches/kate/trunk/ROMS/Version $
svn: $LastChangedBy: kate $
svn: $LastChangedRevision: 1101 $
svn: $LastChangedDate: 2009-11-18 15:56:17 -0900 (Wed, 18 Nov 2009) $
svn: $Id: Version 1101 2009-11-19 00:56:17Z kate $
