ROMS/TOMS Framework:  March 2, 2009
===================

Copyright (c) 2002-2009 The ROMS/TOMS Group
  Licensed under a MIT/X style license
  See License_ROMS.txt

svn: $HeadURL: https://www.myroms.org/svn/omlab/branches/kate/trunk/ROMS/Version $
svn: $LastChangedBy: kate $
svn: $LastChangedRevision: 980 $
svn: $LastChangedDate: 2009-05-20 08:57:22 -0800 (Wed, 20 May 2009) $
svn: $Id: Version 980 2009-05-20 16:57:22Z kate $
