ROMS/TOMS Framework: May 30, 2010
===================

Copyright (c) 2002-2010 The ROMS/TOMS Group
  Licensed under a MIT/X style license
  See License_ROMS.txt

svn: $HeadURL$
svn: $LastChangedBy$
svn: $LastChangedRevision$
svn: $LastChangedDate$
svn: $Id$
