ROMS/TOMS Framework: Jan 23, 2014
===================

Copyright (c) 2002-2014 The ROMS/TOMS Group
  Licensed under a MIT/X style license
  See License_ROMS.txt

svn: $HeadURL: https://www.myroms.org/svn/omlab/branches/kate/trunk/ROMS/Version $
svn: $LastChangedBy: kate $
svn: $LastChangedRevision$
svn: $LastChangedDate$
