ROMS/TOMS Framework:  August 20, 2009
===================

Copyright (c) 2002-2009 The ROMS/TOMS Group
  Licensed under a MIT/X style license
  See License_ROMS.txt

svn: $HeadURL: https://www.myroms.org/svn/omlab/branches/kate/trunk/ROMS/Version $
svn: $LastChangedBy: kate $
svn: $LastChangedRevision: 1047 $
svn: $LastChangedDate: 2009-08-24 15:55:11 -0800 (Mon, 24 Aug 2009) $
svn: $Id: Version 1047 2009-08-24 23:55:11Z kate $
