!  Floats Input Parameters.
!
!==============================================================================
!  Copyright (c) 2002-2016 The ROMS/TOMS Group                                !
!========================================================= Hernan G. Arango ===
!                                                                             !
! Input parameters can be entered in ANY order, provided that the parameter   !
! KEYWORD (usually, upper case) is typed correctly followed by "="  or "=="   !
! symbols. Any comment lines are allowed and must begin with an exclamation   !
! mark (!) in column one.  Comments may  appear to the right of a parameter   !
! specification to improve documentation.  All comments will ignored during   !
! reading.  Blank lines are also allowed and ignored. Continuation lines in   !
! a parameter specification are allowed and must be preceded by a backslash   !
! (\).  In some instances, more than one value is required for a parameter.   !
! If fewer values are provided, the  last value  is assigned for the entire   !
! parameter array. The multiplication symbol (*) is allowed for a parameter   !
! specification. For example, in a two-grids nested application:              !
!                                                                             !
!    AKT_BAK == 2*1.0d-6  2*5.0d-6              ! m2/s                        !
!                                                                             !
! indicates that the first two entries of array AKT_BAK,  in fortran column-  !
! major order, will have the same value of "1.0d-6" for grid 1,  whereas the  !
! next two entries will have the same value of "5.0d-6" for grid 2.           !
!                                                                             !
! In multiple levels of nesting and/or multiple connected domains  step-ups,  !
! "Ngrids" entries are expected for some of these parameters.  The USER may   !
! follow the above guidelines for specifying their values. These parameters   !
! are marked by "==" plural symbol after the KEYWORD.                         !
!                                                                             !
!==============================================================================
!
! Switch to control the computation of floats tracjectories within nested
! and/or multiple connected grids, [1:Ngrids].
!
     Lfloats == T

! Flag indicating re-start from previous solution. If FRREC = 0, a new
! NetCDF output file is created.

       FRREC == 0

! Number of stations to process in each nested grid.  These values are
! essential because the FLOATS structure in "mod_floats" is dynamically
! allocated using these values, [1:Ngrids].

     NFLOATS == 100

! Initial floats locations for all grids:
!
!   G      Nested grid number
!   C      Initial horizontal coordinate type (0: grid units, 1: spherical)
!   T      Float trajectory type
!          (0: neutral 3D Lagrangian, 1:isobaric, 2: isopycnal)
!   N      Number floats to be releazed at (Fx0,Fy0,Fz0)
!   Ft0    Float release time (days) after model initialization
!   Fx0    Initial float X-location (grid units or longitude)
!   Fy0    Initial float Y-location (grid units or latitude)
!   Fz0    Initial float Z-location (grid units or depth)
!   Fdt    Float cluster release time interval (days)
!   Fdx    Float cluster X-distribution parameter
!   Fdy    Float cluster Y-distribution parameter
!   Fdz    Float cluster Z-distribution parameter

POS = G, C, T, N,   Ft0,    Fx0,    Fy0,    Fz0,    Fdt,    Fdx,    Fdy,   Fdz

      1  0  1  20   0.d0   1.   4.  -50.d0   0.d0     5.d0   0.   0.d0
      1  0  1  20   0.d0   1.   4. -100.d0   0.d0     5.d0   0.   0.d0
      1  0  1  20   0.d0   1.   4. -200.d0   0.d0     5.d0   0.   0.d0
      1  0  1  20   0.d0   1.   4. -500.d0   0.d0     5.d0   0.   0.d0
      1  0  1  20   0.d0   1.   4. -950.d0   0.d0     5.d0   0.   0.d0
